<TRIPOS>MOLECULE
1b9v_deposited_1
50  51  1  0  0
SMALL
GASTEIGER
@<TRIPOS>ATOM
    1 C1         6.356    -0.280     0.120 C.3        1 ****   -0.0639
    2 C2         5.068    -1.119     0.143 C.3        1 ****   -0.0403
    3 C3         3.842    -0.269    -0.279 C.3        1 ****    0.0107
    4 C4         4.001     0.232    -1.730 C.3        1 ****   -0.0403
    5 C5         4.067    -0.964    -2.701 C.3        1 ****   -0.0639
    6 N1         2.644    -1.175    -0.171 N.pl3      1 ****   -0.2841
    7 C6         1.270    -0.627    -0.031 C.ar       1 ****    0.0374
    8 C7         1.182     0.757     0.037 C.ar       1 ****   -0.0309
    9 C8        -0.045     1.403     0.078 C.ar       1 ****    0.0276
   10 C9        -1.207     0.653     0.064 C.ar       1 ****   -0.0488
   11 C10       -1.124    -0.733     0.045 C.ar       1 ****   -0.0382
   12 C11        0.093    -1.405    -0.000 C.ar       1 ****    0.0541
   13 N2        -0.002    -2.938     0.053 N.am       1 ****   -0.2593
   14 C12       -1.265    -3.635    -0.051 C.2        1 ****    0.2193
   15 O1        -2.425    -3.064    -0.144 O.2        1 ****   -0.2771
   16 C13       -1.089    -5.121    -0.076 C.3        1 ****    0.0271
   17 C14        0.281    -5.223     0.630 C.3        1 ****   -0.0181
   18 C15        1.089    -3.968     0.154 C.3        1 ****    0.0879
   19 C16        2.158    -3.696     1.260 C.3        1 ****    0.0672
   20 O2         3.371    -4.555     1.056 O.3        1 ****   -0.3941
   21 C17        1.695    -4.213    -1.271 C.3        1 ****    0.0672
   22 O3         0.629    -4.452    -2.303 O.3        1 ****   -0.3941
   23 C18       -0.101     2.862     0.081 C.2        1 ****    0.2160
   24 O4         0.998     3.549     0.071 O.co2      1 ****   -0.6341
   25 O5        -1.359     3.528     0.060 O.co2      1 ****   -0.6341
   26 H1         6.240     0.547     0.794 H          1 ****    0.0230
   27 H2         6.502     0.098    -0.873 H          1 ****    0.0230
   28 H3         7.184    -0.874     0.410 H          1 ****    0.0230
   29 H4         4.909    -1.503     1.136 H          1 ****    0.0279
   30 H5         5.173    -1.953    -0.533 H          1 ****    0.0279
   31 H6         3.739     0.594     0.345 H          1 ****    0.0468
   32 H7         4.902     0.807    -1.813 H          1 ****    0.0279
   33 H8         3.163     0.854    -1.987 H          1 ****    0.0279
   34 H9         3.165    -1.536    -2.616 H          1 ****    0.0230
   35 H10        4.902    -1.582    -2.442 H          1 ****    0.0230
   36 H11        4.177    -0.611    -3.702 H          1 ****    0.0230
   37 H12        2.772    -2.141    -0.442 H          1 ****    0.1284
   38 H13        2.080     1.338     0.057 H          1 ****    0.0647
   39 H14       -2.162     1.136     0.068 H          1 ****    0.0631
   40 H15       -2.029    -1.305     0.066 H          1 ****    0.0643
   41 H16       -1.817    -5.576     0.499 H          1 ****    0.0365
   42 H17       -1.009    -5.454    -1.048 H          1 ****    0.0365
   43 H18        0.777    -6.100     0.326 H          1 ****    0.0295
   44 H19        0.148    -5.185     1.677 H          1 ****    0.0295
   45 H20        1.734    -3.905     2.226 H          1 ****    0.0587
   46 H21        2.448    -2.658     1.229 H          1 ****    0.0587
   47 H22        3.903    -4.215     0.207 H          1 ****    0.2101
   48 H23        2.354    -5.069    -1.237 H          1 ****    0.0587
   49 H24        2.285    -3.352    -1.561 H          1 ****    0.0587
   50 H25        0.000    -3.612    -2.363 H          1 ****    0.2130
@<TRIPOS>BOND
    1     1     2 1
    2     1    26 1
    3     1    27 1
    4     1    28 1
    5     2     3 1
    6     2    29 1
    7     2    30 1
    8     3     4 1
    9     3     6 1
   10     3    31 1
   11     4     5 1
   12     4    32 1
   13     4    33 1
   14     5    34 1
   15     5    35 1
   16     5    36 1
   17     6     7 1
   18     6    37 1
   19     7     8 2
   20     8     9 1
   21     8    38 1
   22     9    10 2
   23     9    23 1
   24    10    11 1
   25    10    39 1
   26    11    12 2
   27    11    40 1
   28    12     7 1
   29    12    13 1
   30    13    14 1
   31    14    15 2
   32    14    16 1
   33    16    17 1
   34    16    41 1
   35    16    42 1
   36    17    18 1
   37    17    43 1
   38    17    44 1
   39    18    13 1
   40    18    19 1
   41    18    21 1
   42    19    20 1
   43    19    45 1
   44    19    46 1
   45    20    47 1
   46    21    22 1
   47    21    48 1
   48    21    49 1
   49    22    50 1
   50    23    24 2
   51    23    25 1
