@<TRIPOS>MOLECULE
1br6_deposited_1
34  36  1  0  0
SMALL
GASTEIGER
@<TRIPOS>ATOM
    1 N1         2.521    -1.397    -0.000 N.3        1 ****   -0.2739
    2 C1         1.230    -0.677    -0.000 C.2        1 ****    0.1711
    3 N2         1.221     0.641    -0.000 N.2        1 ****   -0.2001
    4 C2        -0.022     1.392    -0.000 C.ar       1 ****    0.1861
    5 N3         0.011     2.764     0.000 N.ar       1 ****   -0.2331
    6 C3        -1.159     3.478     0.000 C.ar       1 ****    0.0523
    7 C4        -2.380     2.814     0.000 C.ar       1 ****    0.0739
    8 C5        -3.658     3.598     0.000 C.3        1 ****    0.0440
    9 N4        -3.345     5.088     0.000 N.pl3      1 ****   -0.2827
   10 C6        -4.608     5.872     0.000 C.ar       1 ****    0.0149
   11 C7        -5.836     5.220     0.000 C.ar       1 ****   -0.0435
   12 C8        -7.013     5.958     0.000 C.ar       1 ****   -0.0493
   13 C9        -6.963     7.347     0.000 C.ar       1 ****    0.0260
   14 C10       -5.735     7.999     0.001 C.ar       1 ****   -0.0493
   15 C11       -4.557     7.261     0.001 C.ar       1 ****   -0.0435
   16 C12       -8.202     8.125     0.000 C.2        1 ****    0.2160
   17 O1        -9.348     7.518     0.000 O.co2      1 ****   -0.6341
   18 O2        -8.150     9.549     0.000 O.co2      1 ****   -0.6341
   19 N5        -2.415     1.442     0.000 N.ar       1 ****   -0.2410
   20 C13       -1.242     0.730    -0.000 C.ar       1 ****    0.1709
   21 C14       -1.259    -0.720    -0.000 C.2        1 ****    0.2716
   22 O3        -2.382    -1.367    -0.000 O.2        1 ****   -0.2695
   23 N6        -0.010    -1.425    -0.000 N.am       1 ****   -0.2550
   24 H1         3.443    -0.853    -0.000 H          1 ****    0.1270
   25 H2         2.533    -2.467    -0.000 H          1 ****    0.1270
   26 H3        -1.132     4.568     0.000 H          1 ****    0.0860
   27 H4        -4.236     3.349    -0.889 H          1 ****    0.0499
   28 H5        -4.237     3.349     0.889 H          1 ****    0.0499
   29 H6        -2.361     5.509     0.001 H          1 ****    0.1285
   30 H7        -5.875     4.131     0.000 H          1 ****    0.0639
   31 H8        -7.976     5.448     0.000 H          1 ****    0.0630
   32 H9        -5.696     9.088     0.001 H          1 ****    0.0630
   33 H10       -3.594     7.771     0.001 H          1 ****    0.0639
   34 H11        0.006    -2.495    -0.000 H          1 ****    0.1602
@<TRIPOS>BOND
    1     1     2 1
    2     1    24 1
    3     1    25 1
    4     2     3 2
    5     3     4 1
    6     4     5 2
    7     5     6 1
    8     6     7 2
    9     6    26 1
   10     7     8 1
   11     7    19 1
   12     8     9 1
   13     8    27 1
   14     8    28 1
   15     9    10 1
   16     9    29 1
   17    10    11 2
   18    11    12 1
   19    11    30 1
   20    12    13 2
   21    12    31 1
   22    13    14 1
   23    13    16 1
   24    14    15 2
   25    14    32 1
   26    15    10 1
   27    15    33 1
   28    16    17 2
   29    16    18 1
   30    19    20 2
   31    20     4 1
   32    20    21 1
   33    21    22 2
   34    21    23 1
   35    23     2 1
   36    23    34 1
