@<TRIPOS>MOLECULE
1bxq_ligand
89  89  1  0  0
SMALL
GASTEIGER
@<TRIPOS>ATOM
    1 C1         2.778    -0.903     4.356 C.3        1 ****    0.0453
    2 O1         3.076    -1.441     2.989 O.3        1 ****   -0.3173
    3 C2         3.311    -0.331     2.072 C.2        1 ****    0.2907
    4 O2         3.243     0.891     2.501 O.2        1 ****   -0.2635
    5 C3         3.639    -0.603     0.634 C.3        1 ****    0.1550
    6 C4         2.512    -1.450     0.003 C.3        1 ****    0.0088
    7 C5         1.208    -0.697    -0.000 C.ar       1 ****   -0.0449
    8 C6         1.209     0.692     0.000 C.ar       1 ****   -0.0590
    9 C7         0.005     1.387     0.000 C.ar       1 ****   -0.0620
   10 C8        -1.198     0.692    -0.000 C.ar       1 ****   -0.0623
   11 C9        -1.199    -0.698    -0.000 C.ar       1 ****   -0.0620
   12 C10        0.004    -1.393    -0.000 C.ar       1 ****   -0.0590
   13 O3         4.908    -1.406     0.571 O.3        1 ****   -0.3074
   14 P1         6.264    -0.470     1.277 P.3        1 ****    0.2738
   15 O4         6.406     0.916     0.499 O.2        1 ****   -0.6226
   16 O5         5.955    -0.147     2.973 O.2        1 ****   -0.6226
   17 C11        7.917    -0.510     0.567 C.3        1 ****    0.1065
   18 C12        8.075    -1.837    -0.360 C.3        1 ****   -0.0225
   19 C13        8.115    -0.624    -1.337 C.3        1 ****   -0.0448
   20 C14        8.258    -1.147    -2.776 C.3        1 ****   -0.0627
   21 C15        9.295     0.323    -1.038 C.3        1 ****   -0.0627
   22 N1         8.955    -0.686     1.725 N.am       1 ****   -0.3012
   23 C16       10.277    -1.278     1.807 C.2        1 ****    0.2333
   24 O6        10.482    -2.487     1.387 O.2        1 ****   -0.2755
   25 C17       11.210    -1.337     3.036 C.3        1 ****    0.1077
   26 C18       11.030     0.011     3.796 C.3        1 ****    0.0513
   27 C19       10.808    -1.158     4.726 C.2        1 ****    0.2114
   28 O7        10.454    -0.944     5.955 O.2        1 ****   -0.2779
   29 N2        11.021    -2.515     4.271 N.am       1 ****   -0.3291
   30 N3        12.629    -1.327     2.479 N.am       1 ****   -0.3016
   31 C20       13.910    -0.732     2.796 C.2        1 ****    0.2330
   32 O8        14.034     0.557     2.862 O.2        1 ****   -0.2756
   33 C21       15.076    -1.619     3.115 C.3        1 ****    0.1014
   34 N4        16.242    -0.779     3.508 N.am       1 ****   -0.3035
   35 C22       17.597    -1.211     3.226 C.2        1 ****    0.2125
   36 O9        17.791    -2.329     2.597 O.2        1 ****   -0.2777
   37 C23       18.761    -0.393     3.750 C.3        1 ****    0.0266
   38 C24       20.071    -1.221     3.856 C.3        1 ****   -0.0386
   39 C25       21.156    -0.359     4.527 C.3        1 ****   -0.0623
   40 C26       20.576    -1.641     2.457 C.3        1 ****   -0.0623
   41 C27       14.656    -2.527     4.298 C.3        1 ****   -0.0198
   42 C28       14.325    -1.650     5.519 C.3        1 ****   -0.0605
   43 C29       15.772    -3.520     4.669 C.3        1 ****   -0.0605
   44 H1         1.890    -0.273     4.314 H          1 ****    0.0536
   45 H2         3.625    -0.313     4.708 H          1 ****    0.0536
   46 H3         2.603    -1.731     5.042 H          1 ****    0.0536
   47 H4         3.749     0.342     0.101 H          1 ****    0.0722
   48 H5         2.392    -2.372     0.572 H          1 ****    0.0348
   49 H6         2.783    -1.703    -1.022 H          1 ****    0.0348
   50 H7         2.153     1.236     0.000 H          1 ****    0.0625
   51 H8         0.005     2.477     0.000 H          1 ****    0.0622
   52 H9        -2.142     1.237    -0.000 H          1 ****    0.0622
   53 H10       -2.143    -1.243    -0.000 H          1 ****    0.0622
   54 H11        0.004    -2.483    -0.000 H          1 ****    0.0625
   55 H12        8.017     0.419     0.006 H          1 ****    0.0616
   56 H13        9.024    -2.370    -0.423 H          1 ****    0.0294
   57 H14        7.292    -2.523    -0.684 H          1 ****    0.0294
   58 H15        7.189    -0.064    -1.208 H          1 ****    0.0297
   59 H16        7.409    -1.784    -3.024 H          1 ****    0.0233
   60 H17        9.182    -1.718    -2.871 H          1 ****    0.0233
   61 H18        8.287    -0.303    -3.464 H          1 ****    0.0233
   62 H19       10.221    -0.246    -1.124 H          1 ****    0.0233
   63 H20        9.196     0.681    -0.013 H          1 ****    0.0233
   64 H21        9.300     1.162    -1.733 H          1 ****    0.0233
   65 H22        8.795     0.304     2.098 H          1 ****    0.1503
   66 H23       11.007    -2.190     3.684 H          1 ****    0.0610
   67 H24       11.831     0.637     4.189 H          1 ****    0.0389
   68 H25       10.115     0.601     3.735 H          1 ****    0.0389
   69 H26       11.338    -2.688     3.264 H          1 ****    0.1454
   70 H27       10.862    -3.339     4.935 H          1 ****    0.1454
   71 H28       12.560    -2.381     2.309 H          1 ****    0.1502
   72 H29       15.358    -2.222     2.252 H          1 ****    0.0607
   73 H30       16.078     0.154     4.005 H          1 ****    0.1501
   74 H31       18.928     0.453     3.084 H          1 ****    0.0367
   75 H32       18.507    -0.002     4.735 H          1 ****    0.0367
   76 H33       19.866    -2.117     4.442 H          1 ****    0.0302
   77 H34       20.830    -0.069     5.526 H          1 ****    0.0233
   78 H35       21.339     0.533     3.929 H          1 ****    0.0233
   79 H36       22.078    -0.936     4.604 H          1 ****    0.0233
   80 H37       20.758    -0.745     1.865 H          1 ****    0.0233
   81 H38       19.805    -2.239     1.970 H          1 ****    0.0233
   82 H39       21.494    -2.221     2.547 H          1 ****    0.0233
   83 H40       13.780    -3.101     3.994 H          1 ****    0.0321
   84 H41       13.506    -0.974     5.273 H          1 ****    0.0233
   85 H42       15.203    -1.070     5.802 H          1 ****    0.0233
   86 H43       14.029    -2.287     6.353 H          1 ****    0.0233
   87 H44       16.664    -2.956     4.941 H          1 ****    0.0233
   88 H45       15.995    -4.136     3.797 H          1 ****    0.0233
   89 H46       15.459    -4.150     5.502 H          1 ****    0.0271
@<TRIPOS>BOND
    1     1     2 1
    2     1    44 1
    3     1    45 1
    4     1    46 1
    5     2     3 1
    6     3     4 2
    7     3     5 1
    8     5     6 1
    9     5    13 1
   10     5    47 1
   11     6     7 1
   12     6    48 1
   13     6    49 1
   14     7     8 2
   15     8     9 1
   16     8    50 1
   17     9    10 2
   18     9    51 1
   19    10    11 1
   20    10    52 1
   21    11    12 2
   22    11    53 1
   23    12     7 1
   24    12    54 1
   25    13    14 1
   26    14    15 2
   27    14    16 1
   28    14    17 1
   29    17    18 1
   30    17    22 1
   31    17    55 1
   32    18    19 1
   33    18    56 1
   34    18    57 1
   35    19    20 1
   36    19    21 1
   37    19    58 1
   38    20    59 1
   39    20    60 1
   40    20    61 1
   41    21    62 1
   42    21    63 1
   43    21    64 1
   44    22    23 1
   45    22    65 1
   46    23    24 2
   47    23    25 1
   48    25    26 1
   49    25    30 1
   50    25    66 1
   51    26    27 1
   52    26    67 1
   53    26    68 1
   54    27    28 2
   55    27    29 1
   56    29    69 1
   57    29    70 1
   58    30    31 1
   59    30    71 1
   60    31    32 2
   61    31    33 1
   62    33    34 1
   63    33    41 1
   64    33    72 1
   65    34    35 1
   66    34    73 1
   67    35    36 2
   68    35    37 1
   69    37    38 1
   70    37    74 1
   71    37    75 1
   72    38    39 1
   73    38    40 1
   74    38    76 1
   75    39    77 1
   76    39    78 1
   77    39    79 1
   78    40    80 1
   79    40    81 1
   80    40    82 1
   81    41    42 1
   82    41    43 1
   83    41    83 1
   84    42    84 1
   85    42    85 1
   86    42    86 1
   87    43    87 1
   88    43    88 1
   89    43    89 1
