@<TRIPOS>MOLECULE
1c1b_deposited_1
50  51  1  0  0
SMALL
GASTEIGER
@<TRIPOS>ATOM
    1 C1         6.039    -0.478     0.055 C.3        1 ****   -0.0415
    2 C2         4.851    -1.454    -0.114 C.3        1 ****    0.0458
    3 O1         3.577    -0.671    -0.074 O.3        1 ****   -0.3628
    4 C3         2.357    -1.540    -0.288 C.3        1 ****    0.1202
    5 N1         1.121    -0.688    -0.187 N.am       1 ****   -0.2343
    6 C4         1.266     0.761    -0.188 C.2        1 ****    0.3133
    7 O2         2.422     1.330    -0.334 O.2        1 ****   -0.2532
    8 N2         0.147     1.571     0.000 N.am       1 ****   -0.2350
    9 C5        -1.107     0.986     0.254 C.2        1 ****    0.2483
   10 O3        -2.105     1.785     0.470 O.2        1 ****   -0.2717
   11 C6        -1.274    -0.504     0.311 C.2        1 ****    0.0355
   12 C7        -0.210    -1.325     0.063 C.2        1 ****    0.0295
   13 C8        -0.193    -2.937     0.108 C.3        1 ****    0.0115
   14 C9        -1.425    -3.918    -0.096 C.ar       1 ****   -0.0418
   15 C10       -2.696    -3.517    -0.492 C.ar       1 ****   -0.0557
   16 C11       -3.760    -4.406    -0.552 C.ar       1 ****   -0.0506
   17 C12       -5.143    -3.903    -0.856 C.3        1 ****   -0.0398
   18 C13       -3.556    -5.746    -0.261 C.ar       1 ****   -0.0564
   19 C14       -2.281    -6.182     0.070 C.ar       1 ****   -0.0506
   20 C15       -2.047    -7.639     0.342 C.3        1 ****   -0.0398
   21 C16       -1.229    -5.273     0.160 C.ar       1 ****   -0.0557
   22 C17       -2.628    -1.028     0.705 C.3        1 ****   -0.0151
   23 C18       -3.826    -0.316     0.022 C.3        1 ****   -0.0585
   24 C19       -2.786    -1.078     2.231 C.3        1 ****   -0.0585
   25 H1         5.965     0.027     0.993 H          1 ****    0.0253
   26 H2         6.039     0.237    -0.739 H          1 ****    0.0253
   27 H3         6.963    -1.035     0.027 H          1 ****    0.0253
   28 H4         4.857    -2.165     0.681 H          1 ****    0.0564
   29 H5         4.932    -1.956    -1.054 H          1 ****    0.0564
   30 H6         2.325    -2.303     0.458 H          1 ****    0.0786
   31 H7         2.403    -1.987    -1.260 H          1 ****    0.0786
   32 H8         0.243     2.597    -0.015 H          1 ****    0.1606
   33 H9         0.319    -3.244     1.099 H          1 ****    0.0379
   34 H10        0.641    -3.288    -0.619 H          1 ****    0.0379
   35 H11       -2.858    -2.493    -0.758 H          1 ****    0.0628
   36 H12       -5.034    -3.371    -1.803 H          1 ****    0.0279
   37 H13       -5.324    -3.139    -0.097 H          1 ****    0.0279
   38 H14       -5.833    -4.619    -0.876 H          1 ****    0.0279
   39 H15       -4.373    -6.437    -0.291 H          1 ****    0.0628
   40 H16       -2.403    -8.146    -0.555 H          1 ****    0.0279
   41 H17       -2.753    -7.886     1.136 H          1 ****    0.0279
   42 H18       -1.098    -7.853     0.571 H          1 ****    0.0279
   43 H19       -0.254    -5.621     0.430 H          1 ****    0.0628
   44 H20       -2.660    -2.029     0.327 H          1 ****    0.0348
   45 H21       -3.682    -0.416    -1.045 H          1 ****    0.0236
   46 H22       -3.745     0.735     0.267 H          1 ****    0.0236
   47 H23       -4.728    -0.711     0.325 H          1 ****    0.0236
   48 H24       -2.653    -0.087     2.620 H          1 ****    0.0236
   49 H25       -2.020    -1.714     2.633 H          1 ****    0.0236
   50 H26       -3.742    -1.449     2.488 H          1 ****    0.0260
@<TRIPOS>BOND
    1     1     2 1
    2     1    25 1
    3     1    26 1
    4     1    27 1
    5     2     3 1
    6     2    28 1
    7     2    29 1
    8     3     4 1
    9     4     5 1
   10     4    30 1
   11     4    31 1
   12     5     6 1
   13     6     7 2
   14     6     8 1
   15     8     9 1
   16     8    32 1
   17     9    10 2
   18     9    11 1
   19    11    12 2
   20    11    22 1
   21    12     5 1
   22    12    13 1
   23    13    14 1
   24    13    33 1
   25    13    34 1
   26    14    15 2
   27    15    16 1
   28    15    35 1
   29    16    17 1
   30    16    18 2
   31    17    36 1
   32    17    37 1
   33    17    38 1
   34    18    19 1
   35    18    39 1
   36    19    20 1
   37    19    21 2
   38    20    40 1
   39    20    41 1
   40    20    42 1
   41    21    14 1
   42    21    43 1
   43    22    23 1
   44    22    24 1
   45    22    44 1
   46    23    45 1
   47    23    46 1
   48    23    47 1
   49    24    48 1
   50    24    49 1
   51    24    50 1
