@<TRIPOS>MOLECULE
1ctr_deposited_1
54  57  1  0  0
SMALL
GASTEIGER
@<TRIPOS>ATOM
    1 C1         3.915    -2.220     5.118 C.3        1 ****    0.0219
    2 N1         5.199    -2.973     4.811 N.4        1 ****    0.1360
    3 C2         6.132    -2.087     3.998 C.3        1 ****    0.0657
    4 C3         5.457    -1.708     2.666 C.3        1 ****    0.0659
    5 N2         4.233    -2.439     2.076 N.4        1 ****    0.1380
    6 C4         4.482    -2.601     0.560 C.3        1 ****    0.0348
    7 C5         3.173    -1.835     0.826 C.3        1 ****   -0.0081
    8 C6         2.512    -1.464    -0.515 C.3        1 ****    0.0114
    9 N3         1.222    -0.709    -0.253 N.pl3      1 ****   -0.2428
   10 C7         1.286     0.782    -0.161 C.ar       1 ****    0.0358
   11 C8         2.528     1.397    -0.259 C.ar       1 ****   -0.0425
   12 C9         2.642     2.778    -0.161 C.ar       1 ****   -0.0606
   13 C10        1.507     3.554     0.038 C.ar       1 ****   -0.0611
   14 C11        0.263     2.944     0.130 C.ar       1 ****   -0.0467
   15 C12        0.149     1.562     0.030 C.ar       1 ****    0.0307
   16 S1        -1.421     0.836     0.142 S.3        1 ****   -0.0868
   17 C13       -1.280    -0.890     0.053 C.ar       1 ****    0.0307
   18 C14       -2.426    -1.667     0.170 C.ar       1 ****   -0.0461
   19 C15       -2.344    -3.052     0.103 C.ar       1 ****   -0.0488
   20 C16       -1.110    -3.660    -0.088 C.ar       1 ****    0.0571
   21 C17        0.035    -2.883    -0.208 C.ar       1 ****   -0.0303
   22 C18       -0.042    -1.497    -0.136 C.ar       1 ****    0.0364
   23 C19       -1.013    -5.152    -0.153 C.3        1 ****    0.4159
   24 F1        -2.377    -5.748    -0.086 F          1 ****   -0.1662
   25 F2        -0.354    -5.550    -1.428 F          1 ****   -0.1662
   26 F3        -0.197    -5.642     0.993 F          1 ****   -0.1662
   27 C20        4.205    -3.854     2.690 C.3        1 ****    0.0659
   28 C21        4.880    -4.234     4.022 C.3        1 ****    0.0657
   29 H1         3.427    -1.940     4.185 H          1 ****    0.0643
   30 H2         4.150    -1.321     5.688 H          1 ****    0.0643
   31 H3         3.248    -2.856     5.700 H          1 ****    0.0643
   32 H4         5.677    -3.241     5.730 H          1 ****    0.2298
   33 H5         6.355    -1.181     4.562 H          1 ****    0.0719
   34 H6         7.059    -2.624     3.794 H          1 ****    0.0719
   35 H7         4.533    -1.166     2.869 H          1 ****    0.0719
   36 H8         6.128    -1.077     2.084 H          1 ****    0.0719
   37 H9         3.326    -1.908     2.272 H          1 ****    0.2300
   38 H10        5.158    -1.972    -0.019 H          1 ****    0.0681
   39 H11        4.262    -3.508    -0.003 H          1 ****    0.0681
   40 H12        2.495    -2.463     1.403 H          1 ****    0.0316
   41 H13        3.391    -0.925     1.386 H          1 ****    0.0316
   42 H14        2.293    -2.372    -1.076 H          1 ****    0.0440
   43 H15        3.190    -0.835    -1.092 H          1 ****    0.0440
   44 H16        3.421     0.791    -0.413 H          1 ****    0.0639
   45 H17        3.620     3.253    -0.241 H          1 ****    0.0623
   46 H18        1.593     4.637     0.121 H          1 ****    0.0623
   47 H19       -0.629     3.552     0.282 H          1 ****    0.0635
   48 H20       -3.395    -1.188     0.315 H          1 ****    0.0635
   49 H21       -3.244    -3.659     0.200 H          1 ****    0.0629
   50 H22        1.001    -3.363    -0.360 H          1 ****    0.0646
   51 H23        3.979    -4.760     2.127 H          1 ****    0.0719
   52 H24        3.280    -3.314     2.893 H          1 ****    0.0719
   53 H25        5.802    -4.779     3.820 H          1 ****    0.0719
   54 H26        4.207    -4.864     4.603 H          1 ****    0.0741
@<TRIPOS>BOND
    1     1     2 1
    2     1    29 1
    3     1    30 1
    4     1    31 1
    5     2     3 1
    6     2    32 1
    7     3     4 1
    8     3    33 1
    9     3    34 1
   10     4     5 1
   11     4    35 1
   12     4    36 1
   13     5     6 1
   14     5    27 1
   15     5    37 1
   16     6     7 1
   17     6    38 1
   18     6    39 1
   19     7     8 1
   20     7    40 1
   21     7    41 1
   22     8     9 1
   23     8    42 1
   24     8    43 1
   25     9    10 1
   26    10    11 2
   27    11    12 1
   28    11    44 1
   29    12    13 2
   30    12    45 1
   31    13    14 1
   32    13    46 1
   33    14    15 2
   34    14    47 1
   35    15    10 1
   36    15    16 1
   37    16    17 1
   38    17    18 2
   39    18    19 1
   40    18    48 1
   41    19    20 2
   42    19    49 1
   43    20    21 1
   44    20    23 1
   45    21    22 2
   46    21    50 1
   47    22     9 1
   48    22    17 1
   49    23    24 1
   50    23    25 1
   51    23    26 1
   52    27    28 1
   53    27    51 1
   54    27    52 1
   55    28     2 1
   56    28    53 1
   57    28    54 1
