@<TRIPOS>MOLECULE
1cvu_deposited_1
53  52  1  0  0
SMALL
GASTEIGER
@<TRIPOS>ATOM
    1 C1         0.649    -0.018    -0.000 C.3        1 ****   -0.0654
    2 C2         1.931     0.835    -0.000 C.3        1 ****   -0.0562
    3 C3         3.165    -0.087     0.000 C.3        1 ****   -0.0533
    4 C4         4.446     0.769    -0.000 C.3        1 ****   -0.0499
    5 C5         5.685    -0.149     0.000 C.3        1 ****   -0.0351
    6 C6         6.930     0.692    -0.000 C.2        1 ****   -0.0883
    7 C7         8.131     0.116     0.000 C.2        1 ****   -0.0848
    8 C8         8.241    -1.385     0.000 C.3        1 ****   -0.0170
    9 C9         9.688    -1.797     0.000 C.2        1 ****   -0.0845
   10 C10       10.010    -3.090     0.001 C.2        1 ****   -0.0845
   11 C11        8.932    -4.141     0.001 C.3        1 ****   -0.0169
   12 C12        9.561    -5.510     0.001 C.2        1 ****   -0.0845
   13 C13        8.794    -6.600     0.001 C.2        1 ****   -0.0845
   14 C14        7.294    -6.468     0.001 C.3        1 ****   -0.0170
   15 C15        6.663    -7.834     0.001 C.2        1 ****   -0.0848
   16 C16        5.337    -7.959     0.001 C.2        1 ****   -0.0883
   17 C17        4.467    -6.732     0.001 C.3        1 ****   -0.0347
   18 C18        2.980    -7.141     0.001 C.3        1 ****   -0.0423
   19 C19        2.103    -5.873     0.000 C.3        1 ****    0.0144
   20 C20        0.649    -6.257     0.000 C.2        1 ****    0.1858
   21 O1        -0.264    -5.339     0.000 O.co2      1 ****   -0.6398
   22 O2         0.277    -7.633     0.001 O.co2      1 ****   -0.6398
   23 H1         0.631    -0.647     0.890 H          1 ****    0.0230
   24 H2         0.631    -0.648    -0.890 H          1 ****    0.0230
   25 H3        -0.224     0.635    -0.000 H          1 ****    0.0230
   26 H4         1.949     1.464    -0.890 H          1 ****    0.0263
   27 H5         1.949     1.465     0.889 H          1 ****    0.0263
   28 H6         3.149    -0.716     0.890 H          1 ****    0.0266
   29 H7         3.150    -0.717    -0.890 H          1 ****    0.0266
   30 H8         4.462     1.398    -0.890 H          1 ****    0.0269
   31 H9         4.463     1.399     0.889 H          1 ****    0.0269
   32 H10        5.671    -0.778     0.891 H          1 ****    0.0309
   33 H11        5.672    -0.779    -0.890 H          1 ****    0.0309
   34 H12        6.850     1.779    -0.000 H          1 ****    0.0572
   35 H13        9.032     0.730    -0.000 H          1 ****    0.0575
   36 H14        7.751    -1.783     0.889 H          1 ****    0.0352
   37 H15        7.751    -1.784    -0.888 H          1 ****    0.0352
   38 H16       10.472    -1.039     0.000 H          1 ****    0.0575
   39 H17       11.058    -3.389     0.001 H          1 ****    0.0575
   40 H18        8.313    -4.027     0.891 H          1 ****    0.0352
   41 H19        8.312    -4.028    -0.889 H          1 ****    0.0352
   42 H20       10.646    -5.609     0.001 H          1 ****    0.0575
   43 H21        9.254    -7.589     0.002 H          1 ****    0.0575
   44 H22        6.978    -5.923     0.891 H          1 ****    0.0352
   45 H23        6.977    -5.923    -0.888 H          1 ****    0.0352
   46 H24        7.293    -8.724     0.002 H          1 ****    0.0575
   47 H25        4.882    -8.950     0.002 H          1 ****    0.0572
   48 H26        4.679    -6.138     0.890 H          1 ****    0.0309
   49 H27        4.678    -6.137    -0.888 H          1 ****    0.0309
   50 H28        2.765    -7.732    -0.890 H          1 ****    0.0274
   51 H29        2.764    -7.732     0.891 H          1 ****    0.0274
   52 H30        2.320    -5.281     0.890 H          1 ****    0.0352
   53 H31        2.320    -5.281    -0.888 H          1 ****    0.0386
@<TRIPOS>BOND
    1     1     2 1
    2     1    23 1
    3     1    24 1
    4     1    25 1
    5     2     3 1
    6     2    26 1
    7     2    27 1
    8     3     4 1
    9     3    28 1
   10     3    29 1
   11     4     5 1
   12     4    30 1
   13     4    31 1
   14     5     6 1
   15     5    32 1
   16     5    33 1
   17     6     7 2
   18     6    34 1
   19     7     8 1
   20     7    35 1
   21     8     9 1
   22     8    36 1
   23     8    37 1
   24     9    10 2
   25     9    38 1
   26    10    11 1
   27    10    39 1
   28    11    12 1
   29    11    40 1
   30    11    41 1
   31    12    13 2
   32    12    42 1
   33    13    14 1
   34    13    43 1
   35    14    15 1
   36    14    44 1
   37    14    45 1
   38    15    16 2
   39    15    46 1
   40    16    17 1
   41    16    47 1
   42    17    18 1
   43    17    48 1
   44    17    49 1
   45    18    19 1
   46    18    50 1
   47    18    51 1
   48    19    20 1
   49    19    52 1
   50    19    53 1
   51    20    21 2
   52    20    22 1
