@<TRIPOS>MOLECULE
1cx2_deposited_1
37  39  1  0  0
SMALL
GASTEIGER
@<TRIPOS>ATOM
    1 N1         2.879    -2.528    -1.335 N.am       1 ****   -0.3846
    2 S1         2.967    -1.396    -0.019 S.O2       1 ****    1.4112
    3 O1         4.173    -0.428    -0.196 O.2        1 ****   -0.5686
    4 O2         3.097    -2.195     1.315 O.2        1 ****   -0.5686
    5 C1         1.465    -0.526     0.001 C.ar       1 ****   -0.0416
    6 C2         1.364     0.866     0.002 C.ar       1 ****   -0.0701
    7 C3         0.111     1.482     0.004 C.ar       1 ****   -0.0430
    8 C4        -1.055     0.703     0.001 C.ar       1 ****    0.0446
    9 C5        -0.905    -0.660    -0.001 C.ar       1 ****   -0.0430
   10 C6         0.321    -1.291    -0.001 C.ar       1 ****   -0.0701
   11 N2        -2.424     1.344     0.001 N.ar       1 ****   -0.1375
   12 N3        -2.567     2.689     0.001 N.ar       1 ****   -0.1847
   13 C7        -3.912     2.963     0.000 C.ar       1 ****    0.1610
   14 C8        -4.634     1.779    -0.000 C.ar       1 ****   -0.0089
   15 C9        -3.700     0.755     0.000 C.ar       1 ****    0.0541
   16 C10       -4.157    -0.730     0.000 C.ar       1 ****   -0.0051
   17 C11       -5.524    -1.022    -0.001 C.ar       1 ****   -0.0522
   18 C12       -5.965    -2.344    -0.002 C.ar       1 ****   -0.0474
   19 C13       -5.055    -3.399    -0.001 C.ar       1 ****    0.0175
   20 Br1       -5.622    -5.181    -0.001 Br         1 ****   -0.0509
   21 C14       -3.702    -3.123     0.001 C.ar       1 ****   -0.0474
   22 C15       -3.288    -1.802     0.002 C.ar       1 ****   -0.0522
   23 C16       -4.518     4.346     0.000 C.3        1 ****    0.4342
   24 F1        -3.438     5.369     0.094 F          1 ****   -0.1645
   25 F2        -5.440     4.488     1.163 F          1 ****   -0.1645
   26 F3        -5.289     4.553    -1.258 F          1 ****   -0.1645
   27 H1         2.673    -3.526    -1.147 H          1 ****    0.0880
   28 H2         2.962    -2.195    -2.308 H          1 ****    0.0880
   29 H3         2.252     1.463     0.001 H          1 ****    0.0609
   30 H4         0.040     2.550     0.008 H          1 ****    0.0639
   31 H5        -1.787    -1.266    -0.004 H          1 ****    0.0639
   32 H6         0.382    -2.360    -0.002 H          1 ****    0.0609
   33 H7        -5.700     1.676    -0.001 H          1 ****    0.0663
   34 H8        -6.238    -0.225    -0.002 H          1 ****    0.0629
   35 H9        -7.014    -2.552    -0.003 H          1 ****    0.0634
   36 H10       -2.985    -3.918     0.002 H          1 ****    0.0634
   37 H11       -2.237    -1.601     0.003 H          1 ****    0.0652
@<TRIPOS>BOND
    1     1     2 1
    2     1    27 1
    3     1    28 1
    4     2     3 2
    5     2     4 2
    6     2     5 1
    7     5     6 2
    8     6     7 1
    9     6    29 1
   10     7     8 2
   11     7    30 1
   12     8     9 1
   13     8    11 1
   14     9    10 2
   15     9    31 1
   16    10     5 1
   17    10    32 1
   18    11    12 1
   19    12    13 2
   20    13    14 1
   21    13    23 1
   22    14    15 2
   23    14    33 1
   24    15    11 1
   25    15    16 1
   26    16    17 2
   27    17    18 1
   28    17    34 1
   29    18    19 2
   30    18    35 1
   31    19    20 1
   32    19    21 1
   33    21    22 2
   34    21    36 1
   35    22    16 1
   36    22    37 1
   37    23    24 1
   38    23    25 1
   39    23    26 1
@<TRIPOS>SUBSTRUCTURE
1   ****   1