@<TRIPOS>MOLECULE
1d3h_deposited_1
28  28  1  0  0
SMALL
GASTEIGER
@<TRIPOS>ATOM
    1 C1         3.883    -3.816    -0.002 C.3        1 ****   -0.0167
    2 C2         5.108    -2.942     0.001 C.2        1 ****    0.0686
    3 C3         5.060    -1.598     0.006 C.2        1 ****    0.1401
    4 C4         3.772    -0.985     0.017 C.1        1 ****    0.1071
    5 N1         2.695    -0.478     0.024 N.1        1 ****   -0.1922
    6 C5         6.268    -0.704     0.019 C.2        1 ****    0.2601
    7 O1         6.074     0.579     0.030 O.2        1 ****   -0.2707

    8 N2         7.633    -1.241     0.015 N.am       1 ****   -0.2807

    9 C6         8.842    -0.424     0.021 C.ar       1 ****    0.0327
   10 C7         8.742     0.962     0.033 C.ar       1 ****   -0.0402
   11 C8         9.893     1.741     0.039 C.ar       1 ****   -0.0482
   12 C9        11.143     1.133     0.033 C.ar       1 ****    0.0556
   13 C10       11.242    -0.253     0.022 C.ar       1 ****   -0.0482
   14 C11       10.091    -1.032     0.016 C.ar       1 ****   -0.0402
   15 C12       12.383     1.972     0.041 C.3        1 ****    0.4159
   16 F1        12.014     3.412     0.146 F          1 ****   -0.1662
   17 F2        13.235     1.587     1.200 F          1 ****   -0.1662
   18 F3        13.139     1.741    -1.221 F          1 ****   -0.1662
   19 O2         6.417    -3.590    -0.001 O.3        1 ****   -0.3641
   20 H1         3.325    -3.475    -0.874 H          1 ****    0.0300
   21 H2         3.326    -3.482     0.873 H          1 ****    0.0300
   22 H3         4.079    -4.888    -0.007 H          1 ****    0.0300
   23 H4         7.751    -2.304     0.006 H          1 ****    0.1560
   24 H5         7.761     1.438     0.037 H          1 ****    0.0642
   25 H6         9.815     2.828     0.048 H          1 ****    0.0629
   26 H7        12.223    -0.729     0.018 H          1 ****    0.0629
   27 H8        10.169    -2.119     0.007 H          1 ****    0.0642
   28 H9         6.424    -4.209    -0.849 H          1 ****    0.2195
@<TRIPOS>BOND
    1     1     2 1
    2     1    20 1
    3     1    21 1
    4     1    22 1
    5     2     3 2
    6     2    19 1
    7     3     4 1
    8     3     6 1
    9     4     5 3
   10     6     7 2
   11     6     8 1
   12     8     9 1
   13     8    23 1
   14     9    10 2
   15    10    11 1
   16    10    24 1
   17    11    12 2
   18    11    25 1
   19    12    13 1
   20    12    15 1
   21    13    14 2
   22    13    26 1
   23    14     9 1
   24    14    27 1
   25    15    16 1
   26    15    17 1
   27    15    18 1
   28    19    28 1
