@<TRIPOS>MOLECULE
1ezq_deposited_1
66  68  1  0  0
SMALL
GASTEIGER
@<TRIPOS>ATOM
    1 C1         2.075    -0.732     4.205 C.3        1 ****    0.0452
    2 O1         2.170    -1.114     2.759 O.3        1 ****   -0.3191
    3 C2         3.284    -0.401     2.140 C.2        1 ****    0.2658
    4 O2         4.005     0.411     2.849 O.2        1 ****   -0.2662
    5 C3         3.614    -0.623     0.688 C.3        1 ****    0.0672
    6 C4         2.505    -1.451     0.002 C.3        1 ****   -0.0139
    7 C5         1.203    -0.700    -0.000 C.ar       1 ****   -0.0464
    8 C6         1.204     0.690     0.000 C.ar       1 ****   -0.0590
    9 C7         0.000     1.385     0.000 C.ar       1 ****   -0.0613
   10 C8        -1.203     0.690    -0.000 C.ar       1 ****   -0.0500
   11 C9        -1.203    -0.700    -0.000 C.ar       1 ****    0.0298
   12 C10        0.000    -1.395    -0.000 C.ar       1 ****   -0.0467
   13 C11       -2.471    -1.431    -0.000 C.2        1 ****    0.1547
   14 N1        -3.608    -0.774    -0.000 N.2        1 ****    0.2588
   15 N2        -2.471    -2.875    -0.001 N.3        1 ****   -0.2712
   16 C12        4.676    -1.224     1.647 C.3        1 ****    0.0323
   17 C13        4.786    -2.749     1.319 C.3        1 ****   -0.0459
   18 N3         6.013    -0.597     1.260 N.am       1 ****   -0.3080
   19 C14        7.373    -1.089     1.318 C.2        1 ****    0.2431
   20 O3         7.692    -2.214     0.757 O.2        1 ****   -0.2720
   21 C15        8.395    -0.306     2.004 C.ar       1 ****    0.0370
   22 C16        8.061     0.907     2.593 C.ar       1 ****   -0.0491
   23 C17        9.035     1.653     3.247 C.ar       1 ****   -0.0536
   24 C18       10.342     1.185     3.311 C.ar       1 ****   -0.0184
   25 C19       10.676    -0.029     2.722 C.ar       1 ****   -0.0536
   26 C20        9.702    -0.775     2.068 C.ar       1 ****   -0.0491
   27 C21       11.369     1.971     4.001 C.ar       1 ****   -0.0180
   28 C22       11.034     3.185     4.590 C.ar       1 ****   -0.0544
   29 C23       12.007     3.932     5.244 C.ar       1 ****   -0.0613
   30 C24       13.314     3.465     5.309 C.ar       1 ****   -0.0555
   31 C25       13.649     2.251     4.720 C.ar       1 ****   -0.0131
   32 C26       15.059     1.748     4.790 C.3        1 ****    0.0566
   33 N4        15.919     2.742     5.554 N.4        1 ****    0.1170
   34 C27       12.676     1.504     4.066 C.ar       1 ****   -0.0477
   35 H1         1.909     0.342     4.288 H          1 ****    0.0536
   36 H2         3.002    -0.997     4.713 H          1 ****    0.0536
   37 H3         1.244    -1.264     4.667 H          1 ****    0.0536
   38 H4         3.692     0.339     0.183 H          1 ****    0.0432
   39 H5         2.375    -2.393     0.536 H          1 ****    0.0324
   40 H6         2.799    -1.665    -1.025 H          1 ****    0.0324
   41 H7         2.148     1.235     0.000 H          1 ****    0.0625
   42 H8         0.000     2.475     0.000 H          1 ****    0.0622
   43 H9        -2.147     1.235    -0.000 H          1 ****    0.0630
   44 H10       -0.000    -2.485    -0.000 H          1 ****    0.0633
   45 H11       -3.608     0.296    -0.000 H          1 ****    0.2724
   46 H12       -4.535    -1.309    -0.000 H          1 ****    0.2724
   47 H13       -1.544    -3.410    -0.001 H          1 ****    0.1275
   48 H14       -3.397    -3.410    -0.001 H          1 ****    0.1275
   49 H15        4.407    -1.058     2.690 H          1 ****    0.0509
   50 H16        4.002    -3.331     0.836 H          1 ****    0.0249
   51 H17        4.528    -2.587     2.365 H          1 ****    0.0249
   52 H18        5.727    -3.297     1.262 H          1 ****    0.0249
   53 H19        5.774     0.351     1.696 H          1 ****    0.1499
   54 H20        7.036     1.274     2.543 H          1 ****    0.0631
   55 H21        8.773     2.605     3.709 H          1 ****    0.0629
   56 H22       11.701    -0.396     2.773 H          1 ****    0.0629
   57 H23        9.963    -1.726     1.606 H          1 ****    0.0631
   58 H24       10.009     3.551     4.539 H          1 ****    0.0629
   59 H25       11.744     4.883     5.706 H          1 ****    0.0622
   60 H26       14.077     4.050     5.822 H          1 ****    0.0626
   61 H27       15.076     0.785     5.302 H          1 ****    0.0732
   62 H28       15.453     1.628     3.781 H          1 ****    0.0732
   63 H29       15.532     2.859     6.545 H          1 ****    0.2260
   64 H30       15.902     3.686     5.052 H          1 ****    0.2260
   65 H31       16.925     2.381     5.604 H          1 ****    0.2260
   66 H32       12.939     0.552     3.604 H          1 ****    0.0668
@<TRIPOS>BOND
    1     1     2 1
    2     1    35 1
    3     1    36 1
    4     1    37 1
    5     2     3 1
    6     3     4 2
    7     3     5 1
    8     5     6 1
    9     5    16 1
   10     5    38 1
   11     6     7 1
   12     6    39 1
   13     6    40 1
   14     7     8 2
   15     8     9 1
   16     8    41 1
   17     9    10 2
   18     9    42 1
   19    10    11 1
   20    10    43 1
   21    11    12 2
   22    11    13 1
   23    12     7 1
   24    12    44 1
   25    13    14 2
   26    13    15 1
   27    14    45 1
   28    14    46 1
   29    15    47 1
   30    15    48 1
   31    16    17 1
   32    16    18 1
   33    16    49 1
   34    17    50 1
   35    17    51 1
   36    17    52 1
   37    18    19 1
   38    18    53 1
   39    19    20 2
   40    19    21 1
   41    21    22 2
   42    22    23 1
   43    22    54 1
   44    23    24 2
   45    23    55 1
   46    24    25 1
   47    24    27 1
   48    25    26 2
   49    25    56 1
   50    26    21 1
   51    26    57 1
   52    27    28 2
   53    28    29 1
   54    28    58 1
   55    29    30 2
   56    29    59 1
   57    30    31 1
   58    30    60 1
   59    31    32 1
   60    31    34 2
   61    32    33 1
   62    32    61 1
   63    32    62 1
   64    33    63 1
   65    33    64 1
   66    33    65 1
   67    34    27 1
   68    34    66 1
