@<TRIPOS>MOLECULE
1fcx_deposited_1
56  59  1  0  0
SMALL
GASTEIGER
@<TRIPOS>ATOM
    1 C1         2.340    -1.479    -0.702 C.3        1 ****   -0.0559
    2 C2         1.298    -0.721     0.143 C.3        1 ****   -0.0101
    3 C3         1.754    -0.697     1.615 C.3        1 ****   -0.0559
    4 C4         1.181     0.719    -0.369 C.3        1 ****   -0.0433
    5 C5         0.032     1.383     0.371 C.3        1 ****   -0.0433
    6 C6        -1.274     0.765    -0.142 C.3        1 ****   -0.0100
    7 C7        -2.452     1.288     0.703 C.3        1 ****   -0.0559
    8 C8        -1.480     1.172    -1.614 C.3        1 ****   -0.0559
    9 C9        -1.231    -0.740    -0.063 C.ar       1 ****   -0.0383
   10 C10       -2.427    -1.442    -0.136 C.ar       1 ****   -0.0521
   11 C11       -2.433    -2.830    -0.074 C.ar       1 ****   -0.0148
   12 C12       -1.238    -3.522     0.063 C.ar       1 ****   -0.0558
   13 C13       -0.039    -2.823     0.131 C.ar       1 ****   -0.0579
   14 C14       -0.028    -1.436     0.063 C.ar       1 ****   -0.0386
   15 C15       -3.942    -2.637     0.354 C.3        1 ****    0.1041
   16 O1        -4.747    -2.804    -0.939 O.3        1 ****   -0.3837
   17 C16       -4.289    -3.900     1.218 C.ar       1 ****   -0.0145
   18 C17       -3.479    -3.852     2.346 C.ar       1 ****   -0.0555
   19 C18       -4.006    -4.155     3.595 C.ar       1 ****   -0.0540
   20 C19       -5.345    -4.507     3.716 C.ar       1 ****   -0.0177
   21 C20       -5.872    -4.811     4.965 C.ar       1 ****   -0.0430
   22 C21       -7.211    -5.163     5.086 C.ar       1 ****    0.0265
   23 C22       -8.022    -5.212     3.959 C.ar       1 ****   -0.0502
   24 C23       -7.494    -4.908     2.710 C.ar       1 ****   -0.0537
   25 C24       -6.156    -4.556     2.589 C.ar       1 ****   -0.0180
   26 C25       -5.628    -4.253     1.339 C.ar       1 ****   -0.0483
   27 C26       -7.767    -5.483     6.402 C.2        1 ****    0.2160
   28 O2        -7.011    -5.437     7.454 O.co2      1 ****   -0.6341
   29 O3        -9.140    -5.844     6.526 O.co2      1 ****   -0.6341
   30 H1         2.434    -2.501    -0.335 H          1 ****    0.0239
   31 H2         3.305    -0.977    -0.630 H          1 ****    0.0239
   32 H3         2.019    -1.497    -1.744 H          1 ****    0.0239
   33 H4         2.718    -0.194     1.690 H          1 ****    0.0239
   34 H5         1.847    -1.718     1.985 H          1 ****    0.0239
   35 H6         1.018    -0.161     2.214 H          1 ****    0.0239
   36 H7         2.107     1.257    -0.167 H          1 ****    0.0275
   37 H8         0.974     0.713    -1.439 H          1 ****    0.0275
   38 H9         0.034     2.454     0.170 H          1 ****    0.0275
   39 H10        0.129     1.200     1.441 H          1 ****    0.0275
   40 H11       -2.507     2.373     0.620 H          1 ****    0.0239
   41 H12       -2.304     1.010     1.747 H          1 ****    0.0239
   42 H13       -3.381     0.850     0.340 H          1 ****    0.0239
   43 H14       -0.647     0.808    -2.215 H          1 ****    0.0239
   44 H15       -1.538     2.258    -1.690 H          1 ****    0.0239
   45 H16       -2.408     0.735    -1.982 H          1 ****    0.0239
   46 H17       -3.367    -0.901    -0.241 H          1 ****    0.0629
   47 H18       -1.240    -4.610     0.116 H          1 ****    0.0626
   48 H19        0.899    -3.368     0.239 H          1 ****    0.0625
   49 H20       -4.150    -1.694     0.860 H          1 ****    0.0704
   50 H21       -4.376    -2.644    -1.909 H          1 ****    0.2114
   51 H22       -2.429    -3.575     2.250 H          1 ****    0.0626
   52 H23       -3.370    -4.117     4.480 H          1 ****    0.0629
   53 H24       -5.236    -4.772     5.850 H          1 ****    0.0636
   54 H25       -9.072    -5.488     4.055 H          1 ****    0.0630
   55 H26       -8.130    -4.947     1.825 H          1 ****    0.0629
   56 H27       -6.264    -4.291     0.455 H          1 ****    0.0664
@<TRIPOS>BOND
    1     1     2 1
    2     1    30 1
    3     1    31 1
    4     1    32 1
    5     2     3 1
    6     2     4 1
    7     3    33 1
    8     3    34 1
    9     3    35 1
   10     4     5 1
   11     4    36 1
   12     4    37 1
   13     5     6 1
   14     5    38 1
   15     5    39 1
   16     6     7 1
   17     6     8 1
   18     6     9 1
   19     7    40 1
   20     7    41 1
   21     7    42 1
   22     8    43 1
   23     8    44 1
   24     8    45 1
   25     9    10 2
   26    10    11 1
   27    10    46 1
   28    11    12 2
   29    11    15 1
   30    12    13 1
   31    12    47 1
   32    13    14 2
   33    13    48 1
   34    14     2 1
   35    14     9 1
   36    15    16 1
   37    15    17 1
   38    15    49 1
   39    16    50 1
   40    17    18 2
   41    18    19 1
   42    18    51 1
   43    19    20 2
   44    19    52 1
   45    20    21 1
   46    21    22 2
   47    21    53 1
   48    22    23 1
   49    22    27 1
   50    23    24 2
   51    23    54 1
   52    24    25 1
   53    24    55 1
   54    25    20 1
   55    25    26 2
   56    26    17 1
   57    26    56 1
   58    27    28 2
   59    27    29 1
