@<TRIPOS>MOLECULE
1fl3_deposited_1
41  42  1  0  0
SMALL
GASTEIGER
@<TRIPOS>ATOM
    1 O1         8.762     0.486     0.000 O.co2      1 ****   -0.6398
    2 C1         8.797    -0.937     0.000 C.2        1 ****    0.1858
    3 O2         9.936    -1.557     0.000 O.co2      1 ****   -0.6398
    4 C2         7.517    -1.726     0.000 C.3        1 ****    0.0146
    5 C3         6.295    -0.781     0.000 C.3        1 ****   -0.0372
    6 C4         5.014    -1.643     0.000 C.3        1 ****    0.0251
    7 C5         3.783    -0.779     0.000 C.2        1 ****    0.2159
    8 O3         3.905     0.512     0.000 O.2        1 ****   -0.2774
    9 N1         2.470    -1.426    -0.000 N.am       1 ****   -0.2855
   10 C6         1.205    -0.696    -0.000 C.ar       1 ****    0.0324
   11 C7         1.206     0.694     0.000 C.ar       1 ****   -0.0402
   12 C8         0.003     1.389     0.000 C.ar       1 ****   -0.0532
   13 C9        -1.201     0.693    -0.000 C.ar       1 ****   -0.0256
   14 C10       -2.469     1.425    -0.000 C.2        1 ****   -0.0544
   15 C11       -2.470     2.757     0.000 C.2        1 ****   -0.0544
   16 C12       -3.737     3.490     0.000 C.ar       1 ****   -0.0257
   17 C13       -4.941     2.797     0.000 C.ar       1 ****   -0.0550
   18 C14       -6.144     3.495     0.000 C.ar       1 ****   -0.0617
   19 C15       -6.142     4.884     0.000 C.ar       1 ****   -0.0623
   20 C16       -4.936     5.577     0.000 C.ar       1 ****   -0.0617
   21 C17       -3.734     4.881     0.000 C.ar       1 ****   -0.0550
   22 C18       -1.202    -0.696    -0.000 C.ar       1 ****   -0.0532
   23 C19        0.002    -1.391    -0.000 C.ar       1 ****   -0.0402
   24 H1         7.483    -2.358    -0.887 H          1 ****    0.0353
   25 H2         7.482    -2.359     0.887 H          1 ****    0.0353
   26 H3         6.315    -0.157     0.893 H          1 ****    0.0276
   27 H4         6.314    -0.156    -0.892 H          1 ****    0.0276
   28 H5         5.007    -2.278     0.886 H          1 ****    0.0364
   29 H6         5.008    -2.277    -0.886 H          1 ****    0.0364
   30 H7         2.435    -2.495    -0.000 H          1 ****    0.1556
   31 H8         2.150     1.238     0.000 H          1 ****    0.0642
   32 H9         0.003     2.479     0.000 H          1 ****    0.0629
   33 H10       -3.413     0.880    -0.000 H          1 ****    0.0629
   34 H11       -1.526     3.302     0.000 H          1 ****    0.0629
   35 H12       -4.943     1.707     0.000 H          1 ****    0.0628
   36 H13       -7.089     2.951     0.000 H          1 ****    0.0622
   37 H14       -7.085     5.430     0.000 H          1 ****    0.0622
   38 H15       -4.935     6.667     0.000 H          1 ****    0.0622
   39 H16       -2.789     5.424     0.000 H          1 ****    0.0628
   40 H17       -2.146    -1.241    -0.000 H          1 ****    0.0629
   41 H18        0.002    -2.481    -0.000 H          1 ****    0.0663
@<TRIPOS>BOND
    1     1     2 1
    2     2     3 2
    3     2     4 1
    4     4     5 1
    5     4    24 1
    6     4    25 1
    7     5     6 1
    8     5    26 1
    9     5    27 1
   10     6     7 1
   11     6    28 1
   12     6    29 1
   13     7     8 2
   14     7     9 1
   15     9    10 1
   16     9    30 1
   17    10    11 2
   18    11    12 1
   19    11    31 1
   20    12    13 2
   21    12    32 1
   22    13    14 1
   23    13    22 1
   24    14    15 2
   25    14    33 1
   26    15    16 1
   27    15    34 1
   28    16    17 2
   29    17    18 1
   30    17    35 1
   31    18    19 2
   32    18    36 1
   33    19    20 1
   34    19    37 1
   35    20    21 2
   36    20    38 1
   37    21    16 1
   38    21    39 1
   39    22    23 2
   40    22    40 1
   41    23    10 1
   42    23    41 1
