@<TRIPOS>MOLECULE
1fm6_deposited_1
43  45  1  0  0
SMALL
GASTEIGER
@<TRIPOS>ATOM
    1 C1         6.047     1.010     0.782 C.3        1 ****   -0.0070
    2 N1         6.152    -0.375     0.163 N.pl3      1 ****   -0.2602
    3 C2         4.941    -1.297     0.128 C.3        1 ****    0.0282
    4 C3         3.639    -0.479     0.001 C.3        1 ****    0.0664
    5 O1         2.474    -1.429    -0.000 O.3        1 ****   -0.3448
    6 C4         1.207    -0.697    -0.000 C.ar       1 ****    0.0749
    7 C5         1.208     0.693     0.000 C.ar       1 ****   -0.0316
    8 C6         0.005     1.388     0.000 C.ar       1 ****   -0.0564
    9 C7        -1.199     0.692    -0.000 C.ar       1 ****   -0.0464
   10 C8        -2.520     1.457     0.003 C.3        1 ****   -0.0109
   11 C9        -2.419     2.990     0.302 C.3        1 ****    0.0489
   12 S1        -1.427     3.898    -0.867 S.3        1 ****   -0.1062
   13 C10       -0.473     4.750     0.288 C.2        1 ****    0.1041
   14 O2         0.435     5.618    -0.028 O.2        1 ****   -0.3167
   15 N2        -0.765     4.354     1.625 N.am       1 ****   -0.5281
   16 C11       -1.818     3.346     1.654 C.2        1 ****    0.0606
   17 O3        -2.182     2.761     2.751 O.2        1 ****   -0.3276
   18 C12       -1.200    -0.697    -0.000 C.ar       1 ****   -0.0564
   19 C13        0.004    -1.392    -0.000 C.ar       1 ****   -0.0316
   20 C14        7.495    -0.935    -0.124 C.ar       1 ****    0.1077
   21 C15        7.616    -2.249    -0.556 C.ar       1 ****   -0.0249
   22 C16        8.875    -2.777    -0.819 C.ar       1 ****   -0.0576
   23 C17       10.001    -1.983    -0.646 C.ar       1 ****   -0.0437
   24 C18        9.860    -0.670    -0.213 C.ar       1 ****    0.0286
   25 N3         8.614    -0.157     0.044 N.ar       1 ****   -0.2448
   26 H1         5.688     0.831     1.796 H          1 ****    0.0398
   27 H2         5.232     1.491     0.241 H          1 ****    0.0398
   28 H3         6.970     1.588     0.756 H          1 ****    0.0398
   29 H4         5.026    -1.972    -0.724 H          1 ****    0.0459
   30 H5         4.908    -1.885     1.044 H          1 ****    0.0459
   31 H6         3.651     0.085    -0.931 H          1 ****    0.0585
   32 H7         3.553     0.204     0.846 H          1 ****    0.0585
   33 H8         2.152     1.237     0.000 H          1 ****    0.0650
   34 H9         0.005     2.478     0.000 H          1 ****    0.0626
   35 H10       -3.182     1.003     0.740 H          1 ****    0.0331
   36 H11       -2.998     1.324    -0.968 H          1 ****    0.0331
   37 H12       -3.472     3.270     0.253 H          1 ****    0.0480
   38 H13       -2.144    -1.242    -0.000 H          1 ****    0.0626
   39 H14        0.004    -2.482    -0.000 H          1 ****    0.0650
   40 H15        6.726    -2.865    -0.689 H          1 ****    0.0656
   41 H16        8.978    -3.808    -1.158 H          1 ****    0.0624
   42 H17       10.992    -2.389    -0.849 H          1 ****    0.0638
   43 H18       10.743    -0.045    -0.076 H          1 ****    0.0861
@<TRIPOS>BOND
    1     1     2 1
    2     1    26 1
    3     1    27 1
    4     1    28 1
    5     2     3 1
    6     2    20 1
    7     3     4 1
    8     3    29 1
    9     3    30 1
   10     4     5 1
   11     4    31 1
   12     4    32 1
   13     5     6 1
   14     6     7 2
   15     7     8 1
   16     7    33 1
   17     8     9 2
   18     8    34 1
   19     9    10 1
   20     9    18 1
   21    10    11 1
   22    10    35 1
   23    10    36 1
   24    11    12 1
   25    11    37 1
   26    12    13 1
   27    13    14 2
   28    13    15 1
   29    15    16 1
   30    16    11 1
   31    16    17 2
   32    18    19 2
   33    18    38 1
   34    19     6 1
   35    19    39 1
   36    20    21 2
   37    21    22 1
   38    21    40 1
   39    22    23 2
   40    22    41 1
   41    23    24 1
   42    23    42 1
   43    24    25 2
   44    24    43 1
   45    25    20 1