@<TRIPOS>MOLECULE
1fm9_deposited_1
70  74  1  0  0
SMALL
GASTEIGER
@<TRIPOS>ATOM
    1 C1         1.572    -2.135    -0.000 C.3        1 ****   -0.0155
    2 C2         0.694    -0.924    -0.000 C.ar       1 ****    0.0798
    3 O1         1.125     0.359     0.000 O.2        1 ****   -0.2939
    4 C3         0.007     1.131    -0.000 C.ar       1 ****    0.1791
    5 N1        -1.134     0.363    -0.000 N.ar       1 ****   -0.2260
    6 C4        -0.690    -0.933    -0.000 C.ar       1 ****    0.0720
    7 C5        -1.557    -2.151    -0.000 C.3        1 ****    0.0161
    8 C6        -3.040    -1.738    -0.000 C.3        1 ****    0.0589
    9 O2        -3.893    -2.974    -0.000 O.3        1 ****   -0.3457
   10 C7        -5.313    -2.615     0.000 C.ar       1 ****    0.0749
   11 C8        -5.697    -1.279     0.000 C.ar       1 ****   -0.0316
   12 C9        -7.046    -0.944     0.000 C.ar       1 ****   -0.0564
   13 C10       -8.010    -1.945     0.000 C.ar       1 ****   -0.0458
   14 C11       -9.472    -1.582    -0.003 C.3        1 ****   -0.0044
   15 C12       -9.706    -0.126    -0.472 C.3        1 ****    0.0822
   16 N2       -11.212     0.123    -0.401 N.pl3      1 ****   -0.2771
   17 C13      -11.570     1.557    -0.630 C.ar       1 ****    0.0264
   18 C14      -10.582     2.516    -0.825 C.ar       1 ****   -0.0435
   19 C15      -10.933     3.849    -1.002 C.ar       1 ****   -0.0607
   20 C16      -12.271     4.224    -0.983 C.ar       1 ****   -0.0615
   21 C17      -13.259     3.266    -0.788 C.ar       1 ****   -0.0495
   22 C18      -12.908     1.933    -0.611 C.ar       1 ****    0.0404
   23 C19      -13.976     0.899    -0.400 C.2        1 ****    0.1941
   24 O3       -13.593    -0.330    -0.241 O.2        1 ****   -0.2886
   25 C20      -15.454     1.175    -0.359 C.ar       1 ****    0.0225
   26 C21      -15.986     2.449    -0.517 C.ar       1 ****   -0.0511
   27 C22      -17.363     2.640    -0.469 C.ar       1 ****   -0.0616
   28 C23      -18.208     1.557    -0.264 C.ar       1 ****   -0.0623
   29 C24      -17.677     0.281    -0.105 C.ar       1 ****   -0.0616
   30 C25      -16.302     0.090    -0.153 C.ar       1 ****   -0.0511
   31 C26       -9.256     0.000    -1.909 C.2        1 ****    0.2033
   32 O4        -9.810    -0.728    -2.827 O.co2      1 ****   -0.6379
   33 O5        -8.232     0.929    -2.257 O.co2      1 ****   -0.6379
   34 C27       -7.626    -3.281     0.000 C.ar       1 ****   -0.0564
   35 C28       -6.278    -3.616    -0.000 C.ar       1 ****   -0.0316
   36 C29        0.016     2.592     0.000 C.ar       1 ****    0.0246
   37 C30        1.224     3.278     0.000 C.ar       1 ****   -0.0507
   38 C31        1.233     4.669     0.000 C.ar       1 ****   -0.0616
   39 C32        0.035     5.371     0.000 C.ar       1 ****   -0.0623
   40 C33       -1.174     4.684     0.000 C.ar       1 ****   -0.0616
   41 C34       -1.184     3.295     0.000 C.ar       1 ****   -0.0507
   42 H1         2.207    -1.973     0.871 H          1 ****    0.0301
   43 H2         2.207    -1.973    -0.871 H          1 ****    0.0301
   44 H3         1.061    -3.098    -0.000 H          1 ****    0.0301
   45 H4        -1.347    -2.745    -0.890 H          1 ****    0.0357
   46 H5        -1.348    -2.747     0.888 H          1 ****    0.0357
   47 H6        -3.254    -1.149     0.891 H          1 ****    0.0576
   48 H7        -3.255    -1.148    -0.891 H          1 ****    0.0576
   49 H8        -4.940    -0.494     0.000 H          1 ****    0.0650
   50 H9        -7.347     0.104     0.001 H          1 ****    0.0626
   51 H10      -10.007    -2.260    -0.667 H          1 ****    0.0336
   52 H11       -9.873    -1.700     1.004 H          1 ****    0.0336
   53 H12       -9.156     0.585     0.144 H          1 ****    0.0560
   54 H13      -11.932    -0.645    -0.209 H          1 ****    0.1289
   55 H14       -9.533     2.222    -0.840 H          1 ****    0.0639
   56 H15      -10.159     4.600    -1.155 H          1 ****    0.0623
   57 H16      -12.546     5.269    -1.122 H          1 ****    0.0622
   58 H17      -14.309     3.559    -0.773 H          1 ****    0.0630
   59 H18      -15.324     3.299    -0.679 H          1 ****    0.0630
   60 H19      -17.779     3.640    -0.593 H          1 ****    0.0622
   61 H20      -19.287     1.707    -0.226 H          1 ****    0.0622
   62 H21      -18.341    -0.568     0.056 H          1 ****    0.0622
   63 H22      -15.887    -0.910    -0.029 H          1 ****    0.0630
   64 H23       -8.383    -4.065     0.000 H          1 ****    0.0626
   65 H24       -5.976    -4.663    -0.000 H          1 ****    0.0650
   66 H25        2.164     2.727     0.000 H          1 ****    0.0630
   67 H26        2.181     5.207     0.000 H          1 ****    0.0622
   68 H27        0.042     6.461     0.000 H          1 ****    0.0622
   69 H28       -2.114     5.236     0.000 H          1 ****    0.0622
   70 H29       -2.131     2.757    -0.000 H          1 ****    0.0665
@<TRIPOS>BOND
    1     1     2 1
    2     1    42 1
    3     1    43 1
    4     1    44 1
    5     2     3 1
    6     3     4 1
    7     4     5 2
    8     4    36 1
    9     5     6 1
   10     6     2 2
   11     6     7 1
   12     7     8 1
   13     7    45 1
   14     7    46 1
   15     8     9 1
   16     8    47 1
   17     8    48 1
   18     9    10 1
   19    10    11 2
   20    11    12 1
   21    11    49 1
   22    12    13 2
   23    12    50 1
   24    13    14 1
   25    13    34 1
   26    14    15 1
   27    14    51 1
   28    14    52 1
   29    15    16 1
   30    15    31 1
   31    15    53 1
   32    16    17 1
   33    16    54 1
   34    17    18 2
   35    18    19 1
   36    18    55 1
   37    19    20 2
   38    19    56 1
   39    20    21 1
   40    20    57 1
   41    21    22 2
   42    21    58 1
   43    22    17 1
   44    22    23 1
   45    23    24 2
   46    23    25 1
   47    25    26 2
   48    26    27 1
   49    26    59 1
   50    27    28 2
   51    27    60 1
   52    28    29 1
   53    28    61 1
   54    29    30 2
   55    29    62 1
   56    30    25 1
   57    30    63 1
   58    31    32 2
   59    31    33 1
   60    34    35 2
   61    34    64 1
   62    35    10 1
   63    35    65 1
   64    36    37 2
   65    37    38 1
   66    37    66 1
   67    38    39 2
   68    38    67 1
   69    39    40 1
   70    39    68 1
   71    40    41 2
   72    40    69 1
   73    41    36 1
   74    41    70 1
