@<TRIPOS>MOLECULE
1fzm_ligand
135  136  1  0  0
SMALL
GASTEIGER
@<TRIPOS>ATOM
    1 C1        -8.739    -0.950     1.593 C.3        1 ****   -0.0627
    2 C2        -7.433    -1.759     1.502 C.3        1 ****   -0.0450
    3 C3        -7.639    -3.139     2.158 C.3        1 ****   -0.0627
    4 C4        -6.310    -1.001     2.235 C.3        1 ****   -0.0246
    5 C5        -4.994    -1.791     2.131 C.3        1 ****    0.0894
    6 N1        -3.945    -1.014     2.830 N.am       1 ****   -0.3035
    7 C6        -2.570    -1.455     2.813 C.2        1 ****    0.2295
    8 O1        -2.247    -2.568     2.231 O.2        1 ****   -0.2759
    9 C7        -1.517    -0.625     3.485 C.3        1 ****    0.0881
   10 N2        -0.239    -1.371     3.532 N.am       1 ****   -0.3049
   11 C8         0.882    -0.811     4.247 C.2        1 ****    0.2325
   12 O2         0.770     0.344     4.823 O.2        1 ****   -0.2756
   13 C9         2.168    -1.573     4.344 C.3        1 ****    0.0997
   14 C10        3.138    -0.814     5.265 C.3        1 ****   -0.0173
   15 C11        4.432    -1.622     5.406 C.3        1 ****    0.0263
   16 C12        5.431    -0.845     6.204 C.2        1 ****    0.2091
   17 O3         6.572    -1.380     6.509 O.2        1 ****   -0.2780
   18 N3         5.131     0.504     6.619 N.am       1 ****   -0.3292
   19 N4         2.762    -1.705     2.990 N.am       1 ****   -0.3021
   20 C13        3.105    -0.527     2.218 C.2        1 ****    0.2331
   21 O4         2.938     0.659     2.716 O.2        1 ****   -0.2756
   22 C14        3.571    -0.676     0.803 C.3        1 ****    0.1032
   23 C15        2.501    -1.445     0.002 C.3        1 ****   -0.0005
   24 C16        1.199    -0.693    -0.000 C.ar       1 ****   -0.0455
   25 C17        1.200     0.697     0.000 C.ar       1 ****   -0.0564
   26 C18       -0.003     1.392     0.000 C.ar       1 ****   -0.0319
   27 C19       -1.207     0.697    -0.000 C.ar       1 ****    0.0712
   28 O5        -2.470     1.426    -0.000 O.3        1 ****   -0.3610
   29 C20       -1.208    -0.693    -0.000 C.ar       1 ****   -0.0319
   30 C21       -0.004    -1.388    -0.000 C.ar       1 ****   -0.0564
   31 N5         4.837    -1.451     0.771 N.am       1 ****   -0.3018
   32 C22        6.043    -0.932     1.379 C.2        1 ****    0.2330
   33 O6         6.037     0.231     1.954 O.2        1 ****   -0.2756
   34 C23        7.315    -1.732     1.304 C.3        1 ****    0.1015
   35 N6         8.332    -1.156     2.229 N.am       1 ****   -0.3019
   36 C24        9.729    -1.146     1.851 C.2        1 ****    0.2331
   37 O7        10.096    -1.662     0.719 O.2        1 ****   -0.2756
   38 C25       10.757    -0.518     2.743 C.3        1 ****    0.1032
   39 C26       12.074    -1.322     2.652 C.3        1 ****   -0.0005
   40 C27       13.179    -0.645     3.425 C.ar       1 ****   -0.0455
   41 C28       12.986     0.619     3.970 C.ar       1 ****   -0.0564
   42 C29       14.027     1.254     4.636 C.ar       1 ****   -0.0319
   43 C30       15.260     0.625     4.758 C.ar       1 ****    0.0712
   44 O8        16.353     1.291     5.457 O.3        1 ****   -0.3610
   45 C31       15.453    -0.639     4.213 C.ar       1 ****   -0.0319
   46 C32       14.412    -1.274     3.546 C.ar       1 ****   -0.0564
   47 N7        10.262    -0.455     4.148 N.am       1 ****   -0.3021
   48 C33       10.042    -1.649     4.942 C.2        1 ****    0.2296
   49 O9        10.183    -2.829     4.422 O.2        1 ****   -0.2759
   50 C34        9.665    -1.502     6.388 C.3        1 ****    0.0882
   51 N8         9.504    -2.827     7.035 N.am       1 ****   -0.3032
   52 C35        9.259    -2.887     8.459 C.2        1 ****    0.2502
   53 O10        9.193    -1.789     9.146 O.2        1 ****   -0.2733
   54 C36        8.145    -3.665     9.160 C.3        1 ****    0.1208
   55 N9         8.040    -5.035     8.429 N.4        1 ****    0.1221
   56 C37        8.649    -3.961    10.609 C.3        1 ****   -0.0087
   57 C38        8.477    -5.303    11.344 C.3        1 ****   -0.0360
   58 C39        8.050    -5.034    12.800 C.3        1 ****    0.0041
   59 N10        7.881    -6.320    13.518 N.3        1 ****   -0.2478
   60 C40        7.509    -6.321    14.914 C.2        1 ****    0.1980
   61 N11        7.354    -7.460    15.552 N.2        1 ****    0.2665
   62 N12        7.306    -5.072    15.608 N.3        1 ****   -0.2613
   63 C41        7.006    -3.202     1.677 C.3        1 ****   -0.0198
   64 C42        6.496    -3.266     3.121 C.3        1 ****   -0.0605
   65 C43        8.260    -4.084     1.543 C.3        1 ****   -0.0605
   66 C44       -4.620    -1.919     0.684 C.2        1 ****    0.2059
   67 O11       -4.488    -0.856    -0.046 O.co2      1 ****   -0.6376
   68 O12       -4.410    -3.206     0.113 O.co2      1 ****   -0.6376
   69 H1        -9.014    -0.817     2.639 H          1 ****    0.0233
   70 H2        -9.535    -1.483     1.073 H          1 ****    0.0233
   71 H3        -8.594     0.026     1.130 H          1 ****    0.0233
   72 H4        -7.156    -1.894     0.457 H          1 ****    0.0297
   73 H5        -8.434    -3.674     1.639 H          1 ****    0.0233
   74 H6        -7.913    -3.008     3.205 H          1 ****    0.0233
   75 H7        -6.715    -3.713     2.094 H          1 ****    0.0233
   76 H8        -6.578    -0.880     3.285 H          1 ****    0.0292
   77 H9        -6.180    -0.018     1.781 H          1 ****    0.0292
   78 H10       -5.100    -2.781     2.573 H          1 ****    0.0593
   79 H11       -4.208    -0.118     3.353 H          1 ****    0.1501
   80 H12       -1.374     0.301     2.926 H          1 ****    0.0567
   81 H13       -1.834    -0.387     4.500 H          1 ****    0.0567
   82 H14       -0.148    -2.317     3.041 H          1 ****    0.1499
   83 H15        1.981    -2.565     4.755 H          1 ****    0.0604
   84 H16        2.683    -0.683     6.247 H          1 ****    0.0295
   85 H17        3.364     0.161     4.833 H          1 ****    0.0295
   86 H18        4.841    -1.829     4.417 H          1 ****    0.0365
   87 H19        4.218    -2.564     5.911 H          1 ****    0.0365
   88 H20        4.194     0.949     6.355 H          1 ****    0.1454
   89 H21        5.845     1.059     7.190 H          1 ****    0.1454
   90 H22        2.938    -2.678     2.580 H          1 ****    0.1502
   91 H23        3.736     0.311     0.370 H          1 ****    0.0608
   92 H24        2.349    -2.426     0.452 H          1 ****    0.0340
   93 H25        2.843    -1.575    -1.025 H          1 ****    0.0340
   94 H26        2.144     1.242     0.000 H          1 ****    0.0626
   95 H27       -0.004     2.482     0.000 H          1 ****    0.0650
   96 H28       -2.425     2.048    -0.845 H          1 ****    0.2182
   97 H29       -2.152    -1.237    -0.000 H          1 ****    0.0650
   98 H30       -0.004    -2.478    -0.000 H          1 ****    0.0626
   99 H31        4.857    -2.407     0.291 H          1 ****    0.1502
  100 H32        7.718    -1.698     0.292 H          1 ****    0.0607
  101 H33        8.029    -0.750     3.171 H          1 ****    0.1502
  102 H34       10.945     0.504     2.414 H          1 ****    0.0608
  103 H35       11.914    -2.322     3.056 H          1 ****    0.0340
  104 H36       12.371    -1.411     1.607 H          1 ****    0.0340
  105 H37       12.019     1.112     3.874 H          1 ****    0.0626
  106 H38       13.876     2.245     5.064 H          1 ****    0.0650
  107 H39       15.974     1.505     6.412 H          1 ****    0.2182
  108 H40       16.421    -1.132     4.308 H          1 ****    0.0650
  109 H41       14.563    -2.265     3.119 H          1 ****    0.0626
  110 H42       10.064     0.502     4.585 H          1 ****    0.1502
  111 H43        8.726    -0.951     6.462 H          1 ****    0.0567
  112 H44       10.442    -0.941     6.908 H          1 ****    0.0567
  113 H45        9.569    -3.725     6.456 H          1 ****    0.1500
  114 H46        7.200    -3.122     9.168 H          1 ****    0.0821
  115 H47        8.351    -5.200     7.419 H          1 ****    0.2263
  116 H48        7.108    -4.508     8.433 H          1 ****    0.2263
  117 H49        7.921    -5.976     8.924 H          1 ****    0.2263
  118 H50        7.702    -3.421    10.615 H          1 ****    0.0311
  119 H51        9.405    -3.364    11.119 H          1 ****    0.0311
  120 H52        7.711    -5.896    10.844 H          1 ****    0.0281
  121 H53        9.422    -5.847    11.337 H          1 ****    0.0281
  122 H54        7.107    -4.488    12.807 H          1 ****    0.0433
  123 H55        8.816    -4.439    13.298 H          1 ****    0.0433
  124 H56        8.035    -7.245    13.004 H          1 ****    0.1324
  125 H57        7.505    -8.386    15.037 H          1 ****    0.2734
  126 H58        7.078    -7.461    16.586 H          1 ****    0.2734
  127 H59        7.432    -4.144    15.089 H          1 ****    0.1286
  128 H60        7.030    -5.073    16.642 H          1 ****    0.1286
  129 H61        6.244    -3.574     0.992 H          1 ****    0.0321
  130 H62        5.589    -2.670     3.215 H          1 ****    0.0233
  131 H63        7.259    -2.874     3.794 H          1 ****    0.0233
  132 H64        6.278    -4.301     3.385 H          1 ****    0.0233
  133 H65        9.034    -3.695     2.204 H          1 ****    0.0233
  134 H66        8.614    -4.036     0.514 H          1 ****    0.0233
  135 H67        8.026    -5.115     1.809 H          1 ****    0.0299
@<TRIPOS>BOND
    1     1     2 1
    2     1    69 1
    3     1    70 1
    4     1    71 1
    5     2     3 1
    6     2     4 1
    7     2    72 1
    8     3    73 1
    9     3    74 1
   10     3    75 1
   11     4     5 1
   12     4    76 1
   13     4    77 1
   14     5     6 1
   15     5    66 1
   16     5    78 1
   17     6     7 1
   18     6    79 1
   19     7     8 2
   20     7     9 1
   21     9    10 1
   22     9    80 1
   23     9    81 1
   24    10    11 1
   25    10    82 1
   26    11    12 2
   27    11    13 1
   28    13    14 1
   29    13    19 1
   30    13    83 1
   31    14    15 1
   32    14    84 1
   33    14    85 1
   34    15    16 1
   35    15    86 1
   36    15    87 1
   37    16    17 2
   38    16    18 1
   39    18    88 1
   40    18    89 1
   41    19    20 1
   42    19    90 1
   43    20    21 2
   44    20    22 1
   45    22    23 1
   46    22    31 1
   47    22    91 1
   48    23    24 1
   49    23    92 1
   50    23    93 1
   51    24    25 2
   52    25    26 1
   53    25    94 1
   54    26    27 2
   55    26    95 1
   56    27    28 1
   57    27    29 1
   58    28    96 1
   59    29    30 2
   60    29    97 1
   61    30    24 1
   62    30    98 1
   63    31    32 1
   64    31    99 1
   65    32    33 2
   66    32    34 1
   67    34    35 1
   68    34    63 1
   69    34   100 1
   70    35    36 1
   71    35   101 1
   72    36    37 2
   73    36    38 1
   74    38    39 1
   75    38    47 1
   76    38   102 1
   77    39    40 1
   78    39   103 1
   79    39   104 1
   80    40    41 2
   81    41    42 1
   82    41   105 1
   83    42    43 2
   84    42   106 1
   85    43    44 1
   86    43    45 1
   87    44   107 1
   88    45    46 2
   89    45   108 1
   90    46    40 1
   91    46   109 1
   92    47    48 1
   93    47   110 1
   94    48    49 2
   95    48    50 1
   96    50    51 1
   97    50   111 1
   98    50   112 1
   99    51    52 1
  100    51   113 1
  101    52    53 2
  102    52    54 1
  103    54    55 1
  104    54    56 1
  105    54   114 1
  106    55   115 1
  107    55   116 1
  108    55   117 1
  109    56    57 1
  110    56   118 1
  111    56   119 1
  112    57    58 1
  113    57   120 1
  114    57   121 1
  115    58    59 1
  116    58   122 1
  117    58   123 1
  118    59    60 1
  119    59   124 1
  120    60    61 2
  121    60    62 1
  122    61   125 1
  123    61   126 1
  124    62   127 1
  125    62   128 1
  126    63    64 1
  127    63    65 1
  128    63   129 1
  129    64   130 1
  130    64   131 1
  131    64   132 1
  132    65   133 1
  133    65   134 1
  134    65   135 1
  135    66    67 2
  136    66    68 1
