@<TRIPOS>MOLECULE
1gvx_ligand
127  129  1  0  0
SMALL
GASTEIGER
@<TRIPOS>ATOM
    1 C1        15.639    -3.760     2.977 C.3        1 ****   -0.0366
    2 C2        14.491    -2.811     2.597 C.3        1 ****    0.0783
    3 O1        14.118    -1.985     3.792 O.3        1 ****   -0.3910
    4 C3        14.937    -1.879     1.457 C.3        1 ****    0.1251
    5 N1        16.073    -1.068     1.928 N.am       1 ****   -0.2982
    6 C4        17.390    -1.239     1.352 C.2        1 ****    0.2506
    7 O2        17.568    -2.104     0.403 O.2        1 ****   -0.2733
    8 C5        18.563    -0.438     1.859 C.3        1 ****    0.1225
    9 C6        18.169     0.821     2.640 C.3        1 ****   -0.0064
   10 C7        19.489     1.641     2.660 C.3        1 ****   -0.0177
   11 C8        20.361     0.981     1.548 C.3        1 ****    0.0324
   12 N2        19.355     0.172     0.758 N.4        1 ****    0.1317
   13 C9        13.796    -0.972     1.127 C.2        1 ****    0.2354
   14 O3        13.950     0.311     1.231 O.2        1 ****   -0.2755
   15 N3        12.495    -1.524     0.821 N.am       1 ****   -0.3021
   16 C10       11.187    -1.557     1.536 C.3        1 ****    0.0997
   17 C11       11.217    -0.244     2.410 C.3        1 ****   -0.0183
   18 C12       11.141    -1.527     3.258 C.3        1 ****    0.0163
   19 C13       11.319    -1.192     4.705 C.2        1 ****    0.1858
   20 O4        11.076    -2.087     5.612 O.co2      1 ****   -0.6398
   21 O5        11.798     0.093     5.083 O.co2      1 ****   -0.6398
   22 C14       10.045    -1.401     0.532 C.2        1 ****    0.2325
   23 O6        10.126    -2.646     0.181 O.2        1 ****   -0.2756
   24 N4         8.748    -0.719     0.549 N.am       1 ****   -0.3071
   25 C15        7.475    -1.468     0.258 C.3        1 ****    0.0575
   26 C16        6.226    -0.565     0.510 C.3        1 ****    0.0516
   27 N5         4.960    -1.366     0.203 N.4        1 ****    0.1331
   28 C17        3.722    -0.500     0.323 C.3        1 ****    0.1265
   29 C18        2.516    -1.408    -0.021 C.3        1 ****    0.0155
   30 C19        1.210    -0.655    -0.002 C.ar       1 ****   -0.0437
   31 C20        1.181     0.730     0.044 C.ar       1 ****   -0.0589
   32 C21       -0.035     1.406     0.046 C.ar       1 ****   -0.0620
   33 C22       -1.224     0.693    -0.008 C.ar       1 ****   -0.0623
   34 C23       -1.198    -0.698    -0.060 C.ar       1 ****   -0.0620
   35 C24        0.015    -1.370    -0.054 C.ar       1 ****   -0.0589
   36 C25        3.571     0.022     1.734 C.2        1 ****    0.2509
   37 O7         3.610     1.300     1.947 O.2        1 ****   -0.2732
   38 N6         3.242    -0.896     2.810 N.am       1 ****   -0.3004
   39 C26        2.736    -0.398     4.131 C.3        1 ****    0.0993
   40 C27        3.641     0.664     4.804 C.3        1 ****   -0.0246
   41 C28        5.031     0.154     5.165 C.3        1 ****   -0.0379
   42 C29        5.725     1.255     6.015 C.3        1 ****    0.0040
   43 N7         7.155     0.849     6.304 N.3        1 ****   -0.2478
   44 C30        8.297     1.691     5.850 C.2        1 ****    0.1980
   45 N8         9.526     1.266     6.033 N.2        1 ****    0.2665
   46 N9         8.068     2.998     5.189 N.3        1 ****   -0.2613
   47 C31        1.425     0.291     3.941 C.2        1 ****    0.2327
   48 O8         1.327     1.536     4.285 O.2        1 ****   -0.2756
   49 N10        0.255    -0.407     3.475 N.am       1 ****   -0.3033
   50 C32       -1.056     0.283     3.560 C.3        1 ****    0.0896
   51 C33       -2.196    -0.685     3.224 C.3        1 ****   -0.0194
   52 C34       -3.526     0.083     3.353 C.3        1 ****    0.0163
   53 C35       -4.676    -0.835     3.080 C.2        1 ****    0.1858
   54 O9        -5.891    -0.388     3.149 O.co2      1 ****   -0.6398
   55 O10       -4.435    -2.200     2.758 O.co2      1 ****   -0.6398
   56 C36       -1.242     0.774     4.967 C.2        1 ****    0.2059
   57 O11       -1.532    -0.066     5.911 O.co2      1 ****   -0.6376
   58 O12       -1.077     2.156     5.269 O.co2      1 ****   -0.6376
   59 C37        7.387    -2.767     1.110 C.3        1 ****   -0.0060
   60 C38        7.480    -2.513     2.595 C.ar       1 ****   -0.0461
   61 C39        7.909    -1.303     3.092 C.ar       1 ****   -0.0590
   62 C40        8.053    -1.120     4.465 C.ar       1 ****   -0.0620
   63 C41        7.763    -2.152     5.338 C.ar       1 ****   -0.0623
   64 C42        7.313    -3.372     4.842 C.ar       1 ****   -0.0620
   65 C43        7.174    -3.555     3.478 C.ar       1 ****   -0.0590
   66 H1        15.327    -4.404     3.770 H          1 ****    0.0257
   67 H2        16.487    -3.190     3.293 H          1 ****    0.0257
   68 H3        15.910    -4.354     2.122 H          1 ****    0.0257
   69 H4        13.629    -3.394     2.275 H          1 ****    0.0622
   70 H5        14.945    -1.424     4.108 H          1 ****    0.2105
   71 H6        15.212    -2.476     0.589 H          1 ****    0.0632
   72 H7        15.919    -0.390     2.683 H          1 ****    0.1504
   73 H8        19.221    -1.062     2.462 H          1 ****    0.0822
   74 H9        17.896     0.566     3.613 H          1 ****    0.0312
   75 H10       17.432     1.347     2.119 H          1 ****    0.0312
   76 H11       19.960     1.537     3.589 H          1 ****    0.0304
   77 H12       19.292     2.642     2.410 H          1 ****    0.0304
   78 H13       20.782     1.721     0.939 H          1 ****    0.0680
   79 H14       21.067     0.345     1.980 H          1 ****    0.0680
   80 H15       19.817    -0.554     0.124 H          1 ****    0.2283
   81 H16       18.721     0.822     0.192 H          1 ****    0.2283
   82 H17       12.385    -2.540     0.687 H          1 ****    0.1502
   83 H18       11.073    -2.458     2.138 H          1 ****    0.0604
   84 H19       10.344     0.340     2.570 H          1 ****    0.0295
   85 H20       12.089     0.309     2.676 H          1 ****    0.0295
   86 H21       11.913    -2.204     2.952 H          1 ****    0.0353
   87 H22       10.184    -1.993     3.115 H          1 ****    0.0353
   88 H23        8.703     0.281     0.799 H          1 ****    0.1498
   89 H24        7.476    -1.761    -0.791 H          1 ****    0.0543
   90 H25        6.212    -0.253     1.534 H          1 ****    0.0700
   91 H26        6.269     0.291    -0.127 H          1 ****    0.0700
   92 H27        4.869    -2.185     0.881 H          1 ****    0.2284
   93 H28        5.022    -1.739    -0.798 H          1 ****    0.2284
   94 H29        3.789     0.328    -0.380 H          1 ****    0.0826
   95 H30        2.467    -2.221     0.690 H          1 ****    0.0360
   96 H31        2.663    -1.839    -1.005 H          1 ****    0.0360
   97 H32        2.098     1.281     0.079 H          1 ****    0.0625
   98 H33       -0.054     2.475     0.089 H          1 ****    0.0622
   99 H34       -2.160     1.211    -0.010 H          1 ****    0.0622
  100 H35       -2.114    -1.248    -0.103 H          1 ****    0.0622
  101 H36        0.033    -2.439    -0.090 H          1 ****    0.0625
  102 H37        3.250    -1.912     2.626 H          1 ****    0.1503
  103 H38        2.598    -1.254     4.792 H          1 ****    0.0604
  104 H39        3.740     1.521     4.135 H          1 ****    0.0291
  105 H40        3.153     1.028     5.706 H          1 ****    0.0291
  106 H41        4.948    -0.739     5.737 H          1 ****    0.0280
  107 H42        5.591    -0.017     4.280 H          1 ****    0.0280
  108 H43        5.198     1.380     6.938 H          1 ****    0.0433
  109 H44        5.720     2.182     5.474 H          1 ****    0.0433
  110 H45        7.348    -0.081     6.787 H          1 ****    0.1324
  111 H46        9.695     0.352     6.483 H          1 ****    0.2734
  112 H47       10.322     1.841     5.716 H          1 ****    0.2734
  113 H48        7.077     3.368     5.044 H          1 ****    0.1286
  114 H49        8.906     3.588     4.881 H          1 ****    0.1286
  115 H50        0.317    -1.382     3.145 H          1 ****    0.1501
  116 H51       -1.060     1.133     2.878 H          1 ****    0.0593
  117 H52       -2.083    -1.037     2.224 H          1 ****    0.0294
  118 H53       -2.188    -1.499     3.908 H          1 ****    0.0294
  119 H54       -3.542     0.891     2.649 H          1 ****    0.0353
  120 H55       -3.615     0.481     4.347 H          1 ****    0.0353
  121 H56        6.446    -3.271     0.895 H          1 ****    0.0336
  122 H57        8.185    -3.441     0.816 H          1 ****    0.0336
  123 H58        8.131    -0.499     2.421 H          1 ****    0.0625
  124 H59        8.389    -0.178     4.845 H          1 ****    0.0622
  125 H60        7.883    -2.012     6.392 H          1 ****    0.0622
  126 H61        7.075    -4.169     5.515 H          1 ****    0.0622
  127 H62        6.831    -4.494     3.098 H          1 ****    0.0687
@<TRIPOS>BOND
    1     1     2 1
    2     1    66 1
    3     1    67 1
    4     1    68 1
    5     2     3 1
    6     2     4 1
    7     2    69 1
    8     3    70 1
    9     4     5 1
   10     4    13 1
   11     4    71 1
   12     5     6 1
   13     5    72 1
   14     6     7 2
   15     6     8 1
   16     8     9 1
   17     8    73 1
   18     9    10 1
   19     9    74 1
   20     9    75 1
   21    10    11 1
   22    10    76 1
   23    10    77 1
   24    11    12 1
   25    11    78 1
   26    11    79 1
   27    12     8 1
   28    12    80 1
   29    12    81 1
   30    13    14 2
   31    13    15 1
   32    15    16 1
   33    15    82 1
   34    16    17 1
   35    16    22 1
   36    16    83 1
   37    17    18 1
   38    17    84 1
   39    17    85 1
   40    18    19 1
   41    18    86 1
   42    18    87 1
   43    19    20 2
   44    19    21 1
   45    22    23 2
   46    22    24 1
   47    24    25 1
   48    24    88 1
   49    25    26 1
   50    25    59 1
   51    25    89 1
   52    26    27 1
   53    26    90 1
   54    26    91 1
   55    27    28 1
   56    27    92 1
   57    27    93 1
   58    28    29 1
   59    28    36 1
   60    28    94 1
   61    29    30 1
   62    29    95 1
   63    29    96 1
   64    30    31 2
   65    31    32 1
   66    31    97 1
   67    32    33 2
   68    32    98 1
   69    33    34 1
   70    33    99 1
   71    34    35 2
   72    34   100 1
   73    35    30 1
   74    35   101 1
   75    36    37 2
   76    36    38 1
   77    38    39 1
   78    38   102 1
   79    39    40 1
   80    39    47 1
   81    39   103 1
   82    40    41 1
   83    40   104 1
   84    40   105 1
   85    41    42 1
   86    41   106 1
   87    41   107 1
   88    42    43 1
   89    42   108 1
   90    42   109 1
   91    43    44 1
   92    43   110 1
   93    44    45 2
   94    44    46 1
   95    45   111 1
   96    45   112 1
   97    46   113 1
   98    46   114 1
   99    47    48 2
  100    47    49 1
  101    49    50 1
  102    49   115 1
  103    50    51 1
  104    50    56 1
  105    50   116 1
  106    51    52 1
  107    51   117 1
  108    51   118 1
  109    52    53 1
  110    52   119 1
  111    52   120 1
  112    53    54 2
  113    53    55 1
  114    56    57 2
  115    56    58 1
  116    59    60 1
  117    59   121 1
  118    59   122 1
  119    60    61 2
  120    61    62 1
  121    61   123 1
  122    62    63 2
  123    62   124 1
  124    63    64 1
  125    63   125 1
  126    64    65 2
  127    64   126 1
  128    65    60 1
  129    65   127 1
