@<TRIPOS>MOLECULE
1gwx_deposited_1
65  67  1  0  0
SMALL
GASTEIGER
@<TRIPOS>ATOM
    1 C1        13.411    -4.246    -1.270 C.3        1 ****   -0.0278
    2 C2        14.062    -3.641     0.000 C.3        1 ****    0.1351
    3 C3        13.414    -4.243     1.273 C.3        1 ****   -0.0278
    4 O1        14.012    -2.093    -0.000 O.3        1 ****   -0.3318
    5 C4        12.658    -1.423     0.000 C.ar       1 ****    0.0763
    6 C5        11.469    -2.142     0.001 C.ar       1 ****   -0.0315
    7 C6        10.244    -1.492     0.001 C.ar       1 ****   -0.0565
    8 C7        10.185    -0.108     0.000 C.ar       1 ****   -0.0478
    9 C8         8.832     0.557     0.000 C.3        1 ****   -0.0264
   10 C9         7.789    -0.581     0.002 C.3        1 ****   -0.0332
   11 C10        6.349    -0.085    -0.001 C.3        1 ****    0.0159
   12 N1         5.203    -1.131    -0.001 N.am       1 ****   -0.2853
   13 C11        3.838    -0.467    -0.005 C.3        1 ****    0.0198
   14 C12        2.573    -1.349     0.003 C.3        1 ****   -0.0076
   15 C13        1.223    -0.569     0.001 C.ar       1 ****    0.0079
   16 C14        1.103     0.830     0.001 C.ar       1 ****    0.1274
   17 F1         2.239     1.737     0.002 F          1 ****   -0.2066
   18 C15       -0.158     1.416    -0.000 C.ar       1 ****   -0.0260
   19 C16       -1.306     0.638    -0.001 C.ar       1 ****   -0.0579
   20 C17       -1.193    -0.743    -0.001 C.ar       1 ****   -0.0431
   21 C18        0.063    -1.338     0.000 C.ar       1 ****    0.0467
   22 Cl1        0.180    -3.054     0.000 Cl         1 ****   -0.0839
   23 C19        5.359    -2.684    -0.001 C.2        1 ****    0.3049
   24 O2         4.293    -3.420    -0.001 O.2        1 ****   -0.2537
   25 N2         6.671    -3.399    -0.001 N.am       1 ****   -0.2676
   26 C20        6.801    -4.858    -0.001 C.ar       1 ****    0.0541
   27 C21        5.697    -5.706    -0.001 C.ar       1 ****   -0.0391
   28 C22        5.882    -7.084    -0.001 C.ar       1 ****   -0.0588
   29 C23        7.163    -7.624    -0.002 C.ar       1 ****   -0.0419
   30 C24        8.264    -6.779    -0.002 C.ar       1 ****    0.0611
   31 Cl2        9.865    -7.413    -0.002 Cl         1 ****   -0.0827
   32 C25        8.076    -5.405    -0.002 C.ar       1 ****    0.0805
   33 Cl3        9.453    -4.404    -0.002 Cl         1 ****   -0.0807
   34 C26       11.365     0.627    -0.001 C.ar       1 ****   -0.0565
   35 C27       12.593    -0.032    -0.001 C.ar       1 ****   -0.0315
   36 C28       15.503    -4.054    -0.000 C.2        1 ****    0.2175
   37 O3        15.817    -5.311    -0.060 O.co2      1 ****   -0.6364
   38 O4        16.526    -3.067     0.066 O.co2      1 ****   -0.6364
   39 H1        12.362    -4.029    -1.265 H          1 ****    0.0264
   40 H2        13.552    -5.308    -1.265 H          1 ****    0.0264
   41 H3        13.862    -3.827    -2.142 H          1 ****    0.0264
   42 H4        13.554    -5.305     1.269 H          1 ****    0.0264
   43 H5        12.365    -4.027     1.269 H          1 ****    0.0264
   44 H6        13.865    -3.823     2.143 H          1 ****    0.0264
   45 H7        11.500    -3.212     0.002 H          1 ****    0.0650
   46 H8         9.340    -2.063     0.002 H          1 ****    0.0626
   47 H9         8.721     1.144     0.875 H          1 ****    0.0316
   48 H10        8.720     1.141    -0.874 H          1 ****    0.0316
   49 H11        7.946    -1.206     0.877 H          1 ****    0.0285
   50 H12        7.949    -1.212    -0.872 H          1 ****    0.0285
   51 H13        6.208     0.589     0.873 H          1 ****    0.0469
   52 H14        6.211     0.586    -0.875 H          1 ****    0.0469
   53 H15        3.783     0.215    -0.882 H          1 ****    0.0473
   54 H16        3.786     0.228     0.866 H          1 ****    0.0473
   55 H17        2.599    -2.014    -0.869 H          1 ****    0.0333
   56 H18        2.602    -2.003     0.879 H          1 ****    0.0333
   57 H19       -0.243     2.483    -0.001 H          1 ****    0.0653
   58 H20       -2.271     1.101    -0.002 H          1 ****    0.0624
   59 H21       -2.073    -1.352    -0.001 H          1 ****    0.0638
   60 H22        7.508    -2.896    -0.002 H          1 ****    0.1573
   61 H23        4.707    -5.299    -0.001 H          1 ****    0.0642
   62 H24        5.032    -7.734    -0.001 H          1 ****    0.0623
   63 H25        7.300    -8.685    -0.002 H          1 ****    0.0638
   64 H26       11.330     1.696    -0.001 H          1 ****    0.0626
   65 H27       13.498     0.539    -0.001 H          1 ****    0.0684
@<TRIPOS>BOND
    1     1     2 1
    2     1    39 1
    3     1    40 1
    4     1    41 1
    5     2     3 1
    6     2     4 1
    7     2    36 1
    8     3    42 1
    9     3    43 1
   10     3    44 1
   11     4     5 1
   12     5     6 2
   13     6     7 1
   14     6    45 1
   15     7     8 2
   16     7    46 1
   17     8     9 1
   18     8    34 1
   19     9    10 1
   20     9    47 1
   21     9    48 1
   22    10    11 1
   23    10    49 1
   24    10    50 1
   25    11    12 1
   26    11    51 1
   27    11    52 1
   28    12    13 1
   29    12    23 1
   30    13    14 1
   31    13    53 1
   32    13    54 1
   33    14    15 1
   34    14    55 1
   35    14    56 1
   36    15    16 2
   37    16    17 1
   38    16    18 1
   39    18    19 2
   40    18    57 1
   41    19    20 1
   42    19    58 1
   43    20    21 2
   44    20    59 1
   45    21    15 1
   46    21    22 1
   47    23    24 2
   48    23    25 1
   49    25    26 1
   50    25    60 1
   51    26    27 2
   52    27    28 1
   53    27    61 1
   54    28    29 2
   55    28    62 1
   56    29    30 1
   57    29    63 1
   58    30    31 1
   59    30    32 2
   60    32    26 1
   61    32    33 1
   62    34    35 2
   63    34    64 1
   64    35     5 1
   65    35    65 1
   66    36    37 2
   67    36    38 1
