@<TRIPOS>MOLECULE
1h23_ligand
84  87  1  0  0
SMALL
GASTEIGER
@<TRIPOS>ATOM
    1 O1         2.366    -1.371     0.003 O.2        1 ****   -0.2723
    2 C1         1.243    -0.723     0.000 C.2        1 ****    0.2396
    3 N1         1.232     0.705     0.014 N.am       1 ****   -0.2852
    4 C2        -0.027     1.409     0.013 C.2        1 ****    0.0168
    5 C3        -1.178     0.716    -0.008 C.2        1 ****    0.0069
    6 C4        -1.160    -0.759    -0.021 C.2        1 ****   -0.0485
    7 C5        -0.016    -1.438    -0.017 C.2        1 ****    0.0014
    8 C6        -2.524     1.404    -0.002 C.3        1 ****    0.0711
    9 C7        -2.398     2.862    -0.442 C.3        1 ****   -0.0141
   10 C8        -1.350     3.509     0.438 C.3        1 ****   -0.0441
   11 C9         0.002     2.923     0.029 C.3        1 ****   -0.0140
   12 N2        -3.088     1.352     1.412 N.4        1 ****    0.1287
   13 C10       -2.155     2.075     2.375 C.3        1 ****    0.0321
   14 C11       -2.744     2.010     3.799 C.3        1 ****   -0.0218
   15 C12       -1.809     2.739     4.785 C.3        1 ****   -0.0500
   16 C13       -2.410     2.666     6.205 C.3        1 ****   -0.0532
   17 C14       -1.484     3.393     7.202 C.3        1 ****   -0.0533
   18 C15       -2.093     3.315     8.618 C.3        1 ****   -0.0534
   19 C16       -1.169     4.040     9.620 C.3        1 ****   -0.0534
   20 C17       -1.779     3.962    11.036 C.3        1 ****   -0.0533
   21 C18       -0.852     4.688    12.034 C.3        1 ****   -0.0532
   22 C19       -1.453     4.615    13.453 C.3        1 ****   -0.0500
   23 C20       -0.518     5.345    14.440 C.3        1 ****   -0.0218
   24 C21       -1.107     5.280    15.863 C.3        1 ****    0.0321
   25 N3        -0.174     6.003    16.826 N.4        1 ****    0.1287
   26 C22       -0.738     5.950    18.240 C.3        1 ****    0.0711
   27 C23       -2.097     6.654    18.269 C.3        1 ****   -0.0141
   28 C24       -2.701     6.417    19.639 C.3        1 ****   -0.0441
   29 C25       -3.071     4.935    19.726 C.3        1 ****   -0.0140
   30 C26       -1.900     4.045    19.365 C.2        1 ****    0.0168
   31 C27       -0.842     4.504    18.681 C.2        1 ****    0.0069
   32 C28        0.277     3.605    18.343 C.2        1 ****   -0.0485
   33 C29        0.266     2.322    18.699 C.2        1 ****    0.0014
   34 C30       -0.864     1.791    19.431 C.2        1 ****    0.2396
   35 O2        -0.895     0.542    19.776 O.2        1 ****   -0.2723
   36 N4        -1.949     2.660    19.765 N.am       1 ****   -0.2852
   37 H1         2.153     1.250     0.024 H          1 ****    0.1556
   38 H2        -2.104    -1.303    -0.035 H          1 ****    0.0629
   39 H3        -0.026    -2.528    -0.026 H          1 ****    0.0678
   40 H4        -3.186     0.894    -0.701 H          1 ****    0.0772
   41 H5        -3.353     3.371    -0.312 H          1 ****    0.0309
   42 H6        -2.082     2.907    -1.485 H          1 ****    0.0309
   43 H7        -1.348     4.587     0.279 H          1 ****    0.0271
   44 H8        -1.551     3.277     1.484 H          1 ****    0.0271
   45 H9         0.263     3.285    -0.966 H          1 ****    0.0329
   46 H10        0.766     3.258     0.731 H          1 ****    0.0329
   47 H11       -4.049     1.822     1.429 H          1 ****    0.2282
   48 H12       -3.191     0.331     1.717 H          1 ****    0.2282
   49 H13       -1.177     1.594     2.364 H          1 ****    0.0679
   50 H14       -2.054     3.117     2.071 H          1 ****    0.0679
   51 H15       -3.724     2.488     3.808 H          1 ****    0.0302
   52 H16       -2.848     0.968     4.102 H          1 ****    0.0302
   53 H17       -0.830     2.260     4.780 H          1 ****    0.0267
   54 H18       -1.707     3.783     4.487 H          1 ****    0.0267
   55 H19       -3.391     3.143     6.208 H          1 ****    0.0266
   56 H20       -2.515     1.623     6.502 H          1 ****    0.0266
   57 H21       -0.504     2.916     7.201 H          1 ****    0.0266
   58 H22       -1.380     4.437     6.909 H          1 ****    0.0266
   59 H23       -3.073     3.791     8.619 H          1 ****    0.0266
   60 H24       -2.197     2.270     8.913 H          1 ****    0.0266
   61 H25       -0.189     3.564     9.620 H          1 ****    0.0266
   62 H26       -1.065     5.085     9.328 H          1 ****    0.0266
   63 H27       -2.759     4.439    11.038 H          1 ****    0.0266
   64 H28       -1.882     2.918    11.332 H          1 ****    0.0266
   65 H29        0.128     4.212    12.031 H          1 ****    0.0266
   66 H30       -0.747     5.732    11.738 H          1 ****    0.0266
   67 H31       -2.432     5.095    13.459 H          1 ****    0.0267
   68 H32       -1.555     3.572    13.753 H          1 ****    0.0267
   69 H33        0.461     4.867    14.431 H          1 ****    0.0302
   70 H34       -0.414     6.387    14.139 H          1 ****    0.0302
   71 H35       -2.085     5.760    15.875 H          1 ****    0.0679
   72 H36       -1.208     4.238    16.169 H          1 ****    0.0679
   73 H37        0.787     5.533    16.810 H          1 ****    0.2282
   74 H38       -0.071     7.024    16.523 H          1 ****    0.2282
   75 H39       -0.079     6.468    18.937 H          1 ****    0.0772
   76 H40       -1.961     7.724    18.106 H          1 ****    0.0309
   77 H41       -2.748     6.233    17.502 H          1 ****    0.0309
   78 H42       -3.596     7.027    19.759 H          1 ****    0.0271
   79 H43       -1.970     6.659    20.411 H          1 ****    0.0271
   80 H44       -3.395     4.705    20.741 H          1 ****    0.0329
   81 H45       -3.898     4.731    19.045 H          1 ****    0.0329
   82 H46        1.130     3.998    17.790 H          1 ****    0.0629
   83 H47        1.105     1.674    18.441 H          1 ****    0.0678
   84 H48       -2.792     2.285    20.307 H          1 ****    0.1604
@<TRIPOS>BOND
    1     1     2 2
    2     2     3 1
    3     3     4 1
    4     3    37 1
    5     4     5 2
    6     5     6 1
    7     5     8 1
    8     6     7 2
    9     6    38 1
   10     7     2 1
   11     7    39 1
   12     8     9 1
   13     8    12 1
   14     8    40 1
   15     9    10 1
   16     9    41 1
   17     9    42 1
   18    10    11 1
   19    10    43 1
   20    10    44 1
   21    11     4 1
   22    11    45 1
   23    11    46 1
   24    12    13 1
   25    12    47 1
   26    12    48 1
   27    13    14 1
   28    13    49 1
   29    13    50 1
   30    14    15 1
   31    14    51 1
   32    14    52 1
   33    15    16 1
   34    15    53 1
   35    15    54 1
   36    16    17 1
   37    16    55 1
   38    16    56 1
   39    17    18 1
   40    17    57 1
   41    17    58 1
   42    18    19 1
   43    18    59 1
   44    18    60 1
   45    19    20 1
   46    19    61 1
   47    19    62 1
   48    20    21 1
   49    20    63 1
   50    20    64 1
   51    21    22 1
   52    21    65 1
   53    21    66 1
   54    22    23 1
   55    22    67 1
   56    22    68 1
   57    23    24 1
   58    23    69 1
   59    23    70 1
   60    24    25 1
   61    24    71 1
   62    24    72 1
   63    25    26 1
   64    25    73 1
   65    25    74 1
   66    26    27 1
   67    26    75 1
   68    27    28 1
   69    27    76 1
   70    27    77 1
   71    28    29 1
   72    28    78 1
   73    28    79 1
   74    29    30 1
   75    29    80 1
   76    29    81 1
   77    30    31 2
   78    31    26 1
   79    31    32 1
   80    32    33 2
   81    32    82 1
   82    33    34 1
   83    33    83 1
   84    34    35 2
   85    34    36 1
   86    36    30 1
   87    36    84 1
