@<TRIPOS>MOLECULE
1hp0_deposited_1
33  35  1  0  0
SMALL
GASTEIGER
@<TRIPOS>ATOM
    1 N1         2.623    -1.332     0.063 N.pl3      1 ****   -0.2851
    2 C1         1.331    -0.622     0.017 C.ar       1 ****    0.1302
    3 N2         1.258     0.744    -0.130 N.ar       1 ****   -0.2428
    4 C2         0.038     1.387    -0.208 C.ar       1 ****    0.0304
    5 C3        -1.161     0.674    -0.164 C.ar       1 ****   -0.0228
    6 C4        -1.066    -0.699    -0.002 C.ar       1 ****    0.0557
    7 C5         0.145    -1.325     0.101 C.ar       1 ****    0.1193
    8 N3        -0.050    -2.664     0.312 N.ar       1 ****   -0.2394
    9 C6        -1.418    -2.851     0.347 C.ar       1 ****    0.0786
   10 N4        -2.044    -1.647     0.100 N.ar       1 ****   -0.2033
   11 C7        -3.529    -1.327    -0.023 C.3        1 ****    0.1485
   12 O1        -4.336    -1.941     1.145 O.3        1 ****   -0.3511
   13 C8        -5.330    -2.433     0.084 C.3        1 ****    0.1113
   14 C9        -6.515    -3.337     0.828 C.3        1 ****    0.0721
   15 O2        -7.316    -2.379     0.016 O.3        1 ****   -0.3936
   16 C10       -3.825    -2.805    -0.236 C.3        1 ****    0.1122
   17 O3        -3.196    -4.061    -0.915 O.3        1 ****   -0.3874
   18 C11       -4.295    -1.902    -1.264 C.3        1 ****    0.1228
   19 O4        -5.561    -1.122    -1.334 O.3        1 ****   -0.3861
   20 H1         3.538    -0.788    -0.024 H          1 ****    0.1258
   21 H2         2.638    -2.399     0.149 H          1 ****    0.1258
   22 H3         0.011     2.452    -0.303 H          1 ****    0.0840
   23 H4        -2.108     1.164    -0.251 H          1 ****    0.0656
   24 H5        -1.912    -3.781     0.536 H          1 ****    0.0979
   25 H6        -3.593    -0.242    -0.038 H          1 ****    0.0815
   26 H7        -5.712    -1.571    -0.461 H          1 ****    0.0657
   27 H8        -6.743    -3.169     1.892 H          1 ****    0.0591
   28 H9        -6.872    -4.359     0.618 H          1 ****    0.0591
   29 H10       -7.220    -2.619    -1.002 H          1 ****    0.2101
   30 H11       -3.148    -2.220     0.385 H          1 ****    0.0657
   31 H12       -3.291    -5.038    -0.538 H          1 ****    0.2106
   32 H13       -3.778    -1.781    -2.216 H          1 ****    0.0671
   33 H14       -5.914    -0.942    -0.382 H          1 ****    0.2125
@<TRIPOS>BOND
    1     1     2 1
    2     1    20 1
    3     1    21 1
    4     2     3 2
    5     3     4 1
    6     4     5 2
    7     4    22 1
    8     5     6 1
    9     5    23 1
   10     6     7 2
   11     7     2 1
   12     7     8 1
   13     8     9 2
   14     9    10 1
   15     9    24 1
   16    10     6 1
   17    10    11 1
   18    11    12 1
   19    11    25 1
   20    12    13 1
   21    13    14 1
   22    13    16 1
   23    13    26 1
   24    14    15 1
   25    14    27 1
   26    14    28 1
   27    15    29 1
   28    16    17 1
   29    16    18 1
   30    16    30 1
   31    17    31 1
   32    18    11 1
   33    18    19 1
   34    18    32 1
   35    19    33 1