@<TRIPOS>MOLECULE
1hvy_deposited_1
52  54  1  0  0
SMALL
GASTEIGER
@<TRIPOS>ATOM
    1 C1         3.494    -0.096     2.089 C.3        1 ****   -0.0077
    2 N1         3.653    -0.690     0.689 N.pl3      1 ****   -0.2680
    3 C2         2.513    -1.458     0.006 C.3        1 ****    0.0283
    4 C3         1.202    -0.707    -0.000 C.ar       1 ****   -0.0326
    5 C4         1.200     0.683    -0.000 C.ar       1 ****   -0.0556
    6 C5        -0.004     1.377     0.000 C.ar       1 ****   -0.0353
    7 C6        -1.207     0.681    -0.000 C.ar       1 ****    0.0773
    8 N2        -2.461     1.412     0.000 N.2        1 ****   -0.2374
    9 C7        -3.622     0.788    -0.000 C.2        1 ****    0.0978
   10 C8        -4.889     1.587    -0.000 C.3        1 ****   -0.0083
   11 N3        -3.685    -0.659    -0.000 N.am       1 ****   -0.2696
   12 C9        -2.467    -1.417    -0.000 C.2        1 ****    0.2502
   13 O1        -2.497    -2.713    -0.000 O.2        1 ****   -0.2715
   14 C10       -1.203    -0.707    -0.000 C.ar       1 ****    0.0634
   15 C11       -0.001    -1.404    -0.000 C.ar       1 ****   -0.0430
   16 C12        5.016    -0.803     0.122 C.ar       1 ****    0.0561
   17 C13        5.297    -1.456    -1.068 C.ar       1 ****   -0.0358
   18 C14        6.664    -1.407    -1.345 C.ar       1 ****   -0.0408
   19 C15        7.356    -0.719    -0.353 C.ar       1 ****    0.0758
   20 S1         6.352    -0.170     0.850 S.3        1 ****   -0.0725
   21 C16        8.805    -0.502    -0.366 C.2        1 ****    0.2503
   22 O2         9.355     0.171     0.597 O.2        1 ****   -0.2713
   23 N4         9.633    -1.028    -1.443 N.am       1 ****   -0.3004
   24 C17       11.081    -0.677    -1.471 C.3        1 ****    0.0898
   25 C18       11.802    -1.377    -2.653 C.3        1 ****   -0.0194
   26 C19       13.304    -0.984    -2.595 C.3        1 ****    0.0163
   27 C20       14.088    -1.577    -3.742 C.2        1 ****    0.1858
   28 O3        15.374    -1.408    -3.798 O.co2      1 ****   -0.6398
   29 O4        13.425    -2.304    -4.772 O.co2      1 ****   -0.6398
   30 C21       11.194     0.804    -1.656 C.2        1 ****    0.2059
   31 O5        10.722     1.358    -2.730 O.co2      1 ****   -0.6376
   32 O6        11.790     1.606    -0.643 O.co2      1 ****   -0.6376
   33 H1         3.199    -0.946     2.704 H          1 ****    0.0398
   34 H2         2.614     0.543     2.006 H          1 ****    0.0398
   35 H3         4.370     0.427     2.472 H          1 ****    0.0398
   36 H4         2.371    -2.410     0.517 H          1 ****    0.0485
   37 H5         2.800    -1.674    -1.023 H          1 ****    0.0485
   38 H6         2.143     1.229     0.000 H          1 ****    0.0626
   39 H7        -0.004     2.467     0.000 H          1 ****    0.0645
   40 H8        -4.827     2.229    -0.879 H          1 ****    0.0309
   41 H9        -4.827     2.229     0.879 H          1 ****    0.0309
   42 H10       -5.789     0.972    -0.000 H          1 ****    0.0309
   43 H11       -4.631    -1.157    -0.000 H          1 ****    0.1571
   44 H12       -0.001    -2.494    -0.000 H          1 ****    0.0635
   45 H13        4.554    -1.941    -1.700 H          1 ****    0.0645
   46 H14        7.130    -1.850    -2.225 H          1 ****    0.0637
   47 H15        9.209    -1.654    -2.200 H          1 ****    0.1504
   48 H16       11.544    -1.002    -0.540 H          1 ****    0.0593
   49 H17       11.702    -2.458    -2.556 H          1 ****    0.0294
   50 H18       11.372    -1.042    -3.597 H          1 ****    0.0294
   51 H19       13.392     0.102    -2.628 H          1 ****    0.0353
   52 H20       13.730    -1.334    -1.655 H          1 ****    0.0382
@<TRIPOS>BOND
    1     1     2 1
    2     1    33 1
    3     1    34 1
    4     1    35 1
    5     2     3 1
    6     2    16 1
    7     3     4 1
    8     3    36 1
    9     3    37 1
   10     4     5 2
   11     5     6 1
   12     5    38 1
   13     6     7 2
   14     6    39 1
   15     7     8 1
   16     8     9 2
   17     9    10 1
   18     9    11 1
   19    10    40 1
   20    10    41 1
   21    10    42 1
   22    11    12 1
   23    11    43 1
   24    12    13 2
   25    12    14 1
   26    14     7 1
   27    14    15 2
   28    15     4 1
   29    15    44 1
   30    16    17 2
   31    17    18 1
   32    17    45 1
   33    18    19 2
   34    18    46 1
   35    19    20 1
   36    19    21 1
   37    20    16 1
   38    21    22 2
   39    21    23 1
   40    23    24 1
   41    23    47 1
   42    24    25 1
   43    24    30 1
   44    24    48 1
   45    25    26 1
   46    25    49 1
   47    25    50 1
   48    26    27 1
   49    26    51 1
   50    26    52 1
   51    27    28 2
   52    27    29 1
   53    30    31 2
   54    30    32 1
