@<TRIPOS>MOLECULE
1iiq_ligand
102  104  1  0  0
SMALL
GASTEIGER
@<TRIPOS>ATOM
    1 C1         2.669    -0.612    -6.708 C.3        1 ****   -0.0357
    2 C2         2.928    -1.359    -5.387 C.3        1 ****    0.0711
    3 C3         4.237    -2.168    -5.533 C.3        1 ****   -0.0357
    4 C4         1.738    -2.308    -5.123 C.3        1 ****   -0.0357
    5 O1         3.055    -0.332    -4.275 O.3        1 ****   -0.2946
    6 C5         3.308    -0.911    -2.932 C.2        1 ****    0.3514
    7 O2         3.406    -2.192    -2.748 O.2        1 ****   -0.2425
    8 N1         3.449    -0.011    -1.805 N.am       1 ****   -0.2852
    9 C6         3.677    -0.527    -0.426 C.3        1 ****    0.0580
   10 C7         2.510    -1.449    -0.002 C.3        1 ****   -0.0066
   11 C8         1.208    -0.697    -0.000 C.ar       1 ****   -0.0461
   12 C9         1.209     0.692     0.000 C.ar       1 ****   -0.0590
   13 C10        0.005     1.387     0.000 C.ar       1 ****   -0.0620
   14 C11       -1.198     0.692    -0.000 C.ar       1 ****   -0.0623
   15 C12       -1.199    -0.698    -0.000 C.ar       1 ****   -0.0620
   16 C13        0.004    -1.393    -0.000 C.ar       1 ****   -0.0590
   17 C14        5.056    -0.495     0.318 C.3        1 ****    0.1035
   18 O3         5.214    -1.850     1.003 O.3        1 ****   -0.3875
   19 C15        6.173    -0.414    -0.778 C.3        1 ****    0.0610
   20 N2         7.470    -1.214    -0.737 N.4        1 ****    0.1336
   21 C16        8.623    -1.122    -1.833 C.3        1 ****    0.1265
   22 C17        8.464     0.348    -2.499 C.3        1 ****    0.0155
   23 C18        8.337    -0.652    -3.647 C.ar       1 ****   -0.0437
   24 C19        8.353    -2.023    -3.422 C.ar       1 ****   -0.0589
   25 C20        8.204    -2.905    -4.486 C.ar       1 ****   -0.0620
   26 C21        8.039    -2.416    -5.776 C.ar       1 ****   -0.0623
   27 C22        8.022    -1.044    -6.003 C.ar       1 ****   -0.0620
   28 C23        8.172    -0.163    -4.939 C.ar       1 ****   -0.0589
   29 C24        9.961    -1.055    -1.003 C.2        1 ****    0.2509
   30 O4         9.973    -2.267    -0.542 O.2        1 ****   -0.2732
   31 N3        11.202    -0.413    -1.429 N.am       1 ****   -0.3004
   32 C25       12.575    -0.302    -0.660 C.3        1 ****    0.0998
   33 C26       12.769    -1.696     0.061 C.3        1 ****   -0.0173
   34 C27       12.848    -0.532     1.066 C.3        1 ****    0.0263
   35 C28       13.079    -1.080     2.444 C.2        1 ****    0.2091
   36 O5        13.183    -0.274     3.454 O.2        1 ****   -0.2780
   37 N4        13.179    -2.507     2.645 N.am       1 ****   -0.3292
   38 C29       13.652    -0.255    -1.769 C.2        1 ****    0.2328
   39 O6        13.417     0.897    -2.317 O.2        1 ****   -0.2756
   40 N5        15.017    -0.707    -1.555 N.am       1 ****   -0.3018
   41 C30       16.188     0.093    -2.010 C.3        1 ****    0.1030
   42 C31       17.434    -0.822    -1.929 C.3        1 ****   -0.0005
   43 C32       18.709    -0.072    -2.257 C.ar       1 ****   -0.0457
   44 C33       18.722     1.316    -2.304 C.ar       1 ****   -0.0590
   45 C34       19.914     1.993    -2.536 C.ar       1 ****   -0.0620
   46 C35       21.092     1.281    -2.720 C.ar       1 ****   -0.0623
   47 C36       21.080    -0.108    -2.672 C.ar       1 ****   -0.0620
   48 C37       19.889    -0.785    -2.441 C.ar       1 ****   -0.0590
   49 C38       15.973     0.507    -3.443 C.2        1 ****    0.2299
   50 O7        16.073    -0.371    -4.392 O.2        1 ****   -0.2758
   51 N6        15.696     1.886    -3.762 N.am       1 ****   -0.3276
   52 H1         2.564    -1.326    -7.525 H          1 ****    0.0259
   53 H2         3.493     0.069    -6.919 H          1 ****    0.0259
   54 H3         1.748    -0.038    -6.617 H          1 ****    0.0259
   55 H4         5.070    -1.495    -5.737 H          1 ****    0.0259
   56 H5         4.141    -2.890    -6.343 H          1 ****    0.0259
   57 H6         4.431    -2.701    -4.602 H          1 ****    0.0259
   58 H7         1.648    -3.030    -5.934 H          1 ****    0.0259
   59 H8         0.815    -1.734    -5.039 H          1 ****    0.0259
   60 H9         1.910    -2.843    -4.189 H          1 ****    0.0259
   61 H10        3.388     1.045    -1.966 H          1 ****    0.1521
   62 H11        3.735     0.318     0.260 H          1 ****    0.0536
   63 H12        2.441    -2.286    -0.697 H          1 ****    0.0336
   64 H13        2.702    -1.837     0.999 H          1 ****    0.0336
   65 H14        2.153     1.236     0.000 H          1 ****    0.0625
   66 H15        0.005     2.477     0.000 H          1 ****    0.0622
   67 H16       -2.142     1.237    -0.000 H          1 ****    0.0622
   68 H17       -2.143    -1.243    -0.000 H          1 ****    0.0622
   69 H18        0.004    -2.483    -0.000 H          1 ****    0.0625
   70 H19        5.117     0.337     1.020 H          1 ****    0.0657
   71 H20        4.417    -2.478     1.272 H          1 ****    0.2107
   72 H21        6.015    -0.030    -1.786 H          1 ****    0.0708
   73 H22        6.239     0.419    -0.078 H          1 ****    0.0708
   74 H23        7.615    -1.607     0.247 H          1 ****    0.2284
   75 H24        7.412    -2.023    -1.435 H          1 ****    0.2284
   76 H25        8.596    -1.931    -2.563 H          1 ****    0.0826
   77 H26        9.315     1.001    -2.696 H          1 ****    0.0360
   78 H27        7.572     0.972    -2.478 H          1 ****    0.0360
   79 H28        8.483    -2.407    -2.410 H          1 ****    0.0625
   80 H29        8.217    -3.981    -4.308 H          1 ****    0.0622
   81 H30        7.921    -3.108    -6.610 H          1 ****    0.0622
   82 H31        7.892    -0.661    -7.015 H          1 ****    0.0622
   83 H32        8.159     0.913    -5.117 H          1 ****    0.0625
   84 H33       11.177     0.590    -1.800 H          1 ****    0.1503
   85 H34       12.643     0.536     0.033 H          1 ****    0.0604
   86 H35       13.711    -2.245     0.068 H          1 ****    0.0295
   87 H36       11.957    -2.366     0.345 H          1 ****    0.0295
   88 H37       11.913     0.028     1.050 H          1 ****    0.0365
   89 H38       13.673     0.127     0.795 H          1 ****    0.0365
   90 H39       13.088    -3.172     1.812 H          1 ****    0.1454
   91 H40       13.343    -2.898     3.627 H          1 ****    0.1454
   92 H41       15.185    -1.640    -1.058 H          1 ****    0.1502
   93 H42       16.317     0.983    -1.393 H          1 ****    0.0608
   94 H43       17.318    -1.650    -2.629 H          1 ****    0.0340
   95 H44       17.512    -1.232    -0.922 H          1 ****    0.0340
   96 H45       17.797     1.875    -2.160 H          1 ****    0.0625
   97 H46       19.924     3.083    -2.573 H          1 ****    0.0622
   98 H47       22.027     1.812    -2.901 H          1 ****    0.0622
   99 H48       22.005    -0.667    -2.817 H          1 ****    0.0622
  100 H49       19.880    -1.874    -2.404 H          1 ****    0.0625
  101 H50       15.642     2.616    -2.982 H          1 ****    0.1455
  102 H51       15.543     2.180    -4.780 H          1 ****    0.1505
@<TRIPOS>BOND
    1     1     2 1
    2     1    52 1
    3     1    53 1
    4     1    54 1
    5     2     3 1
    6     2     4 1
    7     2     5 1
    8     3    55 1
    9     3    56 1
   10     3    57 1
   11     4    58 1
   12     4    59 1
   13     4    60 1
   14     5     6 1
   15     6     7 2
   16     6     8 1
   17     8     9 1
   18     8    61 1
   19     9    10 1
   20     9    17 1
   21     9    62 1
   22    10    11 1
   23    10    63 1
   24    10    64 1
   25    11    12 2
   26    12    13 1
   27    12    65 1
   28    13    14 2
   29    13    66 1
   30    14    15 1
   31    14    67 1
   32    15    16 2
   33    15    68 1
   34    16    11 1
   35    16    69 1
   36    17    18 1
   37    17    19 1
   38    17    70 1
   39    18    71 1
   40    19    20 1
   41    19    72 1
   42    19    73 1
   43    20    21 1
   44    20    74 1
   45    20    75 1
   46    21    22 1
   47    21    29 1
   48    21    76 1
   49    22    23 1
   50    22    77 1
   51    22    78 1
   52    23    24 2
   53    24    25 1
   54    24    79 1
   55    25    26 2
   56    25    80 1
   57    26    27 1
   58    26    81 1
   59    27    28 2
   60    27    82 1
   61    28    23 1
   62    28    83 1
   63    29    30 2
   64    29    31 1
   65    31    32 1
   66    31    84 1
   67    32    33 1
   68    32    38 1
   69    32    85 1
   70    33    34 1
   71    33    86 1
   72    33    87 1
   73    34    35 1
   74    34    88 1
   75    34    89 1
   76    35    36 2
   77    35    37 1
   78    37    90 1
   79    37    91 1
   80    38    39 2
   81    38    40 1
   82    40    41 1
   83    40    92 1
   84    41    42 1
   85    41    49 1
   86    41    93 1
   87    42    43 1
   88    42    94 1
   89    42    95 1
   90    43    44 2
   91    44    45 1
   92    44    96 1
   93    45    46 2
   94    45    97 1
   95    46    47 1
   96    46    98 1
   97    47    48 2
   98    47    99 1
   99    48    43 1
  100    48   100 1
  101    49    50 2
  102    49    51 1
  103    51   101 1
  104    51   102 1
