@<TRIPOS>MOLECULE
1lpz_deposited_1
55  58  1  0  0
SMALL
GASTEIGER
@<TRIPOS>ATOM
    1 C1         2.482    -1.328     0.028 C.3        1 ****   -0.0392
    2 C2         1.133    -0.664     0.031 C.ar       1 ****   -0.0422
    3 C3         1.033     0.746     0.019 C.ar       1 ****   -0.0587
    4 C4        -0.229     1.345     0.008 C.ar       1 ****   -0.0604
    5 C5        -1.395     0.607    -0.003 C.ar       1 ****   -0.0431
    6 C6        -1.274    -0.815    -0.002 C.ar       1 ****    0.0297
    7 C7        -0.024    -1.357     0.024 C.ar       1 ****   -0.0024
    8 C8        -0.197    -2.763    -0.002 C.ar       1 ****   -0.0291
    9 C9        -1.559    -2.979    -0.065 C.ar       1 ****    0.0860
   10 C10       -2.029    -4.383    -0.209 C.2        1 ****    0.2545
   11 O1        -3.132    -4.716    -0.756 O.2        1 ****   -0.2708
   12 N1        -1.227    -5.486     0.058 N.am       1 ****   -0.3063
   13 C11       -1.996    -6.742     0.061 C.3        1 ****    0.0367
   14 C12       -1.214    -7.957     0.029 C.ar       1 ****   -0.0279
   15 C13        0.170    -7.918     0.016 C.ar       1 ****   -0.0387
   16 C14        0.883    -9.106    -0.005 C.ar       1 ****    0.0423
   17 Cl1        2.597    -9.058    -0.013 Cl         1 ****   -0.0843
   18 C15        0.211   -10.324    -0.013 C.ar       1 ****   -0.0248
   19 C16       -1.179   -10.355    -0.003 C.ar       1 ****    0.0423
   20 Cl2       -2.024   -11.852    -0.011 Cl         1 ****   -0.0843
   21 C17       -1.892    -9.167     0.018 C.ar       1 ****   -0.0387
   22 N2        -2.250    -1.731    -0.042 N.ar       1 ****   -0.2354
   23 C18       -3.805    -1.274    -0.031 C.3        1 ****    0.0333
   24 C19       -5.048    -2.217     0.076 C.ar       1 ****   -0.0324
   25 C20       -4.874    -3.565     0.296 C.ar       1 ****   -0.0577
   26 C21       -5.915    -4.473     0.302 C.ar       1 ****   -0.0612
   27 C22       -7.200    -4.009     0.134 C.ar       1 ****   -0.0499
   28 C23       -7.430    -2.649     0.005 C.ar       1 ****    0.0298
   29 C24       -6.359    -1.746    -0.034 C.ar       1 ****   -0.0454
   30 C25       -8.827    -2.220    -0.022 C.2        1 ****    0.1547
   31 N3        -9.795    -3.121    -0.017 N.2        1 ****    0.2588
   32 N4        -9.170    -0.796    -0.028 N.3        1 ****   -0.2712
   33 H1         2.992    -0.897     0.893 H          1 ****    0.0279
   34 H2         2.980    -0.914    -0.853 H          1 ****    0.0279
   35 H3         2.442    -2.320     0.038 H          1 ****    0.0279
   36 H4         1.916     1.350     0.018 H          1 ****    0.0625
   37 H5        -0.294     2.413     0.007 H          1 ****    0.0623
   38 H6        -2.354     1.083    -0.011 H          1 ****    0.0639
   39 H7         0.573    -3.506     0.022 H          1 ****    0.0648
   40 H8        -0.203    -5.427     0.221 H          1 ****    0.1500
   41 H9        -2.678    -6.741    -0.796 H          1 ****    0.0517
   42 H10       -2.638    -6.760     0.952 H          1 ****    0.0517
   43 H11        0.684    -6.979     0.022 H          1 ****    0.0641
   44 H12        0.764   -11.240    -0.027 H          1 ****    0.0654
   45 H13       -2.961    -9.183     0.026 H          1 ****    0.0641
   46 H14       -3.973    -0.604    -0.953 H          1 ****    0.0489
   47 H15       -3.922    -0.471     0.790 H          1 ****    0.0489
   48 H16       -3.883    -3.927     0.471 H          1 ****    0.0626
   49 H17       -5.725    -5.518     0.435 H          1 ****    0.0622
   50 H18       -8.019    -4.696     0.103 H          1 ****    0.0630
   51 H19       -6.544    -0.698    -0.148 H          1 ****    0.0634
   52 H20       -9.581    -4.134    -0.006 H          1 ****    0.2724
   53 H21      -10.775    -2.817    -0.022 H          1 ****    0.2724
   54 H22       -8.400    -0.059    -0.013 H          1 ****    0.1275
   55 H23      -10.195    -0.501    -0.022 H          1 ****    0.1305
@<TRIPOS>BOND
    1     1     2 1
    2     1    33 1
    3     1    34 1
    4     1    35 1
    5     2     3 2
    6     3     4 1
    7     3    36 1
    8     4     5 2
    9     4    37 1
   10     5     6 1
   11     5    38 1
   12     6     7 2
   13     7     2 1
   14     7     8 1
   15     8     9 2
   16     8    39 1
   17     9    10 1
   18     9    22 1
   19    10    11 2
   20    10    12 1
   21    12    13 1
   22    12    40 1
   23    13    14 1
   24    13    41 1
   25    13    42 1
   26    14    15 2
   27    15    16 1
   28    15    43 1
   29    16    17 1
   30    16    18 2
   31    18    19 1
   32    18    44 1
   33    19    20 1
   34    19    21 2
   35    21    14 1
   36    21    45 1
   37    22     6 1
   38    22    23 1
   39    23    24 1
   40    23    46 1
   41    23    47 1
   42    24    25 2
   43    25    26 1
   44    25    48 1
   45    26    27 2
   46    26    49 1
   47    27    28 1
   48    27    50 1
   49    28    29 2
   50    28    30 1
   51    29    24 1
   52    29    51 1
   53    30    31 2
   54    30    32 1
   55    31    52 1
   56    31    53 1
   57    32    54 1
   58    32    55 1
