@<TRIPOS>MOLECULE
1oyt_deposited_1
55  59  1  0  0
SMALL
GASTEIGER
@<TRIPOS>ATOM
    1 N1         2.532    -1.016    -6.346 N.3        1 ****   -0.2712
    2 C1         1.749    -0.038    -5.569 C.2        1 ****    0.1547
    3 N2         1.213     1.000    -6.179 N.2        1 ****    0.2588
    4 C2         1.557    -0.215    -4.137 C.ar       1 ****    0.0295
    5 C3         1.044     0.835    -3.398 C.ar       1 ****   -0.0495
    6 C4         0.817     0.674    -2.045 C.ar       1 ****   -0.0545
    7 C5         1.036    -0.542    -1.410 C.ar       1 ****   -0.0095
    8 C6         1.574    -1.587    -2.156 C.ar       1 ****   -0.0545
    9 C7         1.848    -1.422    -3.510 C.ar       1 ****   -0.0495
   10 C8         0.793    -0.780     0.112 C.3        1 ****    0.0840
   11 C9         1.087     0.467     0.997 C.3        1 ****    0.0899
   12 C10       -0.202     1.357     0.921 C.3        1 ****    0.0859
   13 C11       -1.204     0.426     0.200 C.3        1 ****    0.0580
   14 C12       -2.661     0.423     0.540 C.3        1 ****   -0.0146
   15 C13       -3.048    -0.995    -0.058 C.3        1 ****   -0.0181
   16 C14       -1.658    -1.748    -0.291 C.3        1 ****    0.0341
   17 N3        -0.606    -0.730    -0.529 N.4        1 ****    0.1414
   18 C15        0.220     2.564     0.150 C.2        1 ****    0.2289
   19 O1        -0.635     3.400    -0.336 O.2        1 ****   -0.2765
   20 N4         1.697     2.553    -0.045 N.am       1 ****   -0.2366
   21 C16        2.613     3.496    -0.847 C.3        1 ****    0.0470
   22 C17        2.075     4.767    -1.521 C.ar       1 ****   -0.0299
   23 C18        0.754     5.178    -1.419 C.ar       1 ****   -0.0546
   24 C19        0.316     6.342    -2.036 C.ar       1 ****   -0.0260
   25 C20        1.209     7.116    -2.763 C.ar       1 ****    0.1227
   26 F1         0.757     8.338    -3.402 F          1 ****   -0.2070
   27 C21        2.535     6.717    -2.873 C.ar       1 ****   -0.0260
   28 C22        2.963     5.547    -2.256 C.ar       1 ****   -0.0546
   29 C23        2.220     1.341     0.562 C.2        1 ****    0.2293
   30 O2         3.446     0.939     0.443 O.2        1 ****   -0.2765
   31 H1         2.667    -0.870    -7.395 H          1 ****    0.1275
   32 H2         2.981    -1.855    -5.861 H          1 ****    0.1275
   33 H3         1.344     1.120    -7.190 H          1 ****    0.2724
   34 H4         0.653     1.689    -5.651 H          1 ****    0.2724
   35 H5         0.825     1.769    -3.872 H          1 ****    0.0630
   36 H6         0.463     1.506    -1.472 H          1 ****    0.0627
   37 H7         1.780    -2.525    -1.685 H          1 ****    0.0627
   38 H8         2.283    -2.224    -4.070 H          1 ****    0.0630
   39 H9         1.401    -1.639     0.395 H          1 ****    0.0781
   40 H10        1.159     0.099     2.019 H          1 ****    0.0454
   41 H11       -0.476     1.592     1.947 H          1 ****    0.0451
   42 H12       -1.101     0.504    -0.843 H          1 ****    0.0727
   43 H13       -3.150     1.165     0.023 H          1 ****    0.0307
   44 H14       -2.789     0.418     1.563 H          1 ****    0.0307
   45 H15       -3.543    -0.871    -0.978 H          1 ****    0.0303
   46 H16       -3.631    -1.529     0.640 H          1 ****    0.0303
   47 H17       -1.705    -2.706     0.109 H          1 ****    0.0681
   48 H18       -1.399    -1.708    -1.293 H          1 ****    0.0681
   49 H19       -0.488    -0.564    -1.577 H          1 ****    0.2305
   50 H20        3.137     2.884    -1.634 H          1 ****    0.0525
   51 H21        3.472     3.796    -0.180 H          1 ****    0.0525
   52 H22        0.062     4.589    -0.854 H          1 ****    0.0627
   53 H23       -0.708     6.642    -1.951 H          1 ****    0.0653
   54 H24        3.227     7.310    -3.434 H          1 ****    0.0653
   55 H25        3.985     5.243    -2.347 H          1 ****    0.0654
@<TRIPOS>BOND
    1     1     2 1
    2     1    31 1
    3     1    32 1
    4     2     3 2
    5     2     4 1
    6     3    33 1
    7     3    34 1
    8     4     5 2
    9     5     6 1
   10     5    35 1
   11     6     7 2
   12     6    36 1
   13     7     8 1
   14     7    10 1
   15     8     9 2
   16     8    37 1
   17     9     4 1
   18     9    38 1
   19    10    11 1
   20    10    39 1
   21    11    12 1
   22    11    40 1
   23    12    13 1
   24    12    18 1
   25    12    41 1
   26    13    14 1
   27    13    42 1
   28    14    15 1
   29    14    43 1
   30    14    44 1
   31    15    16 1
   32    15    45 1
   33    15    46 1
   34    16    17 1
   35    16    47 1
   36    16    48 1
   37    17    10 1
   38    17    13 1
   39    17    49 1
   40    18    19 2
   41    18    20 1
   42    20    21 1
   43    20    29 1
   44    21    22 1
   45    21    50 1
   46    21    51 1
   47    22    23 2
   48    23    24 1
   49    23    52 1
   50    24    25 2
   51    24    53 1
   52    25    26 1
   53    25    27 1
   54    27    28 2
   55    27    54 1
   56    28    22 1
   57    28    55 1
   58    29    11 1
   59    29    30 2
