@<TRIPOS>MOLECULE
1pso_deposited_1
110  109  1  0  0
SMALL
GASTEIGER
@<TRIPOS>ATOM
    1 C1        23.891     1.559     4.064 C.3        1 ****   -0.0628
    2 C2        24.358     0.674     2.898 C.3        1 ****   -0.0453
    3 C3        25.721     0.074     3.304 C.3        1 ****   -0.0628
    4 C4        24.464     1.568     1.618 C.3        1 ****   -0.0299
    5 C5        24.431     0.804     0.241 C.3        1 ****    0.0490
    6 N1        23.189    -0.015     0.147 N.am       1 ****   -0.3084
    7 C6        21.886     0.622     0.001 C.2        1 ****    0.2321
    8 O1        21.805     1.906    -0.159 O.2        1 ****   -0.2756
    9 C7        20.705     0.311     0.968 C.3        1 ****    0.0963
   10 C8        20.721    -1.256     1.159 C.3        1 ****   -0.0378
   11 N2        19.388     0.620     0.121 N.am       1 ****   -0.3040
   12 C9        18.056     0.002     0.085 C.2        1 ****    0.2149
   13 O2        17.938    -1.287     0.002 O.2        1 ****   -0.2776
   14 C10       16.807     0.862     0.058 C.3        1 ****    0.0522
   15 C11       15.442     0.639     0.856 C.3        1 ****    0.0808
   16 O3        15.439    -0.823     1.296 O.3        1 ****   -0.3907
   17 C12       14.353     0.104    -1.041 C.3        1 ****    0.0491
   18 C13       14.370     1.590    -1.535 C.3        1 ****   -0.0299
   19 C14       14.830     0.698    -2.740 C.3        1 ****   -0.0453
   20 C15       14.959     1.577    -3.996 C.3        1 ****   -0.0628
   21 C16       13.864    -0.462    -3.044 C.3        1 ****   -0.0628
   22 N3        13.014    -0.078    -0.235 N.am       1 ****   -0.3084
   23 C17       11.687     0.505     0.017 C.2        1 ****    0.2327
   24 O4        11.588     1.726     0.431 O.2        1 ****   -0.2756
   25 C18       10.427    -0.310    -0.243 C.3        1 ****    0.1015
   26 N4         9.216     0.570    -0.022 N.am       1 ****   -0.3019
   27 C19        7.873     0.029     0.228 C.2        1 ****    0.2330
   28 O5         7.679    -1.246     0.307 O.2        1 ****   -0.2756
   29 C20        6.710     0.975     0.411 C.3        1 ****    0.1014
   30 N5         5.438     0.188     0.486 N.am       1 ****   -0.3035
   31 C21        4.180     0.750     0.012 C.2        1 ****    0.2125
   32 O6         4.157     1.944    -0.489 O.2        1 ****   -0.2777
   33 C22        2.897    -0.037     0.198 C.3        1 ****    0.0266
   34 C23        1.643     0.793    -0.192 C.3        1 ****   -0.0386
   35 C24        0.378    -0.015     0.152 C.3        1 ****   -0.0623
   36 C25        1.636     1.103    -1.705 C.3        1 ****   -0.0623
   37 C26        6.939     1.756     1.729 C.3        1 ****   -0.0198
   38 C27        6.990     0.763     2.904 C.3        1 ****   -0.0605
   39 C28        5.820     2.786     1.978 C.3        1 ****   -0.0605
   40 C29       10.486    -0.812    -1.712 C.3        1 ****   -0.0198
   41 C30       10.428     0.403    -2.657 C.3        1 ****   -0.0605
   42 C31        9.339    -1.779    -2.056 C.3        1 ****   -0.0605
   43 C32       25.786     0.292     0.924 C.3        1 ****    0.0798
   44 O7        25.786    -1.272     0.758 O.3        1 ****   -0.3907
   45 C33       26.963     0.814     0.024 C.3        1 ****    0.0420
   46 C34       28.188     0.002    -0.297 C.2        1 ****    0.1884
   47 O8        29.363     0.546    -0.222 O.co2      1 ****   -0.6397
   48 O9        28.063    -1.368    -0.670 O.co2      1 ****   -0.6397
   49 H1        24.600     2.367     4.241 H          1 ****    0.0233
   50 H2        23.767     0.966     4.971 H          1 ****    0.0233
   51 H3        22.927     1.995     3.801 H          1 ****    0.0233
   52 H4        23.665    -0.139     2.679 H          1 ****    0.0297
   53 H5        25.620    -0.537     4.201 H          1 ****    0.0233
   54 H6        26.454     0.863     3.472 H          1 ****    0.0233
   55 H7        26.075    -0.560     2.491 H          1 ****    0.0233
   56 H8        25.389     2.142     1.672 H          1 ****    0.0289
   57 H9        23.649     2.291     1.632 H          1 ****    0.0289
   58 H10       24.438     1.589    -0.515 H          1 ****    0.0530
   59 H11       23.254    -1.082     0.188 H          1 ****    0.1497
   60 H12       20.777     0.843     1.916 H          1 ****    0.0601
   61 H13       20.823    -0.738     2.112 H          1 ****    0.0254
   62 H14       21.588    -1.898     1.000 H          1 ****    0.0254
   63 H15       19.816    -1.864     1.171 H          1 ****    0.0254
   64 H16       19.476     1.681     0.222 H          1 ****    0.1501
   65 H17       16.824     1.500    -0.825 H          1 ****    0.0392
   66 H18       16.776     1.485     0.953 H          1 ****    0.0392
   67 H19       15.343     1.327     1.696 H          1 ****    0.0625
   68 H20       15.363    -0.157     2.104 H          1 ****    0.2105
   69 H21       14.464    -0.586    -1.878 H          1 ****    0.0530
   70 H22       13.406     2.038    -1.775 H          1 ****    0.0289
   71 H23       15.089     2.397    -1.398 H          1 ****    0.0289
   72 H24       15.787     0.257    -2.461 H          1 ****    0.0297
   73 H25       15.698     2.360    -3.822 H          1 ****    0.0233
   74 H26       13.996     2.030    -4.227 H          1 ****    0.0233
   75 H27       15.279     0.961    -4.836 H          1 ****    0.0233
   76 H28       12.885    -0.033    -3.257 H          1 ****    0.0233
   77 H29       13.785    -1.073    -2.144 H          1 ****    0.0233
   78 H30       14.215    -1.059    -3.885 H          1 ****    0.0233
   79 H31       13.107    -1.123    -0.442 H          1 ****    0.1497
   80 H32       10.357    -1.162     0.433 H          1 ****    0.0607
   81 H33        9.344     1.632    -0.049 H          1 ****    0.1502
   82 H34        6.636     1.669    -0.425 H          1 ****    0.0607
   83 H35        5.453    -0.801     0.894 H          1 ****    0.1501
   84 H36        2.937    -0.934    -0.419 H          1 ****    0.0367
   85 H37        2.813    -0.342     1.241 H          1 ****    0.0367
   86 H38        1.664     1.732     0.361 H          1 ****    0.0302
   87 H39        0.355    -0.225     1.222 H          1 ****    0.0233
   88 H40        0.379    -0.953    -0.403 H          1 ****    0.0233
   89 H41       -0.505     0.563    -0.119 H          1 ****    0.0233
   90 H42        1.638     0.164    -2.257 H          1 ****    0.0233
   91 H43        2.537     1.665    -1.954 H          1 ****    0.0233
   92 H44        0.752     1.685    -1.965 H          1 ****    0.0233
   93 H45        7.882     2.296     1.645 H          1 ****    0.0321
   94 H46        7.808     0.059     2.754 H          1 ****    0.0233
   95 H47        6.048     0.219     2.966 H          1 ****    0.0233
   96 H48        7.151     1.310     3.833 H          1 ****    0.0233
   97 H49        4.867     2.259     2.028 H          1 ****    0.0233
   98 H50        5.796     3.483     1.140 H          1 ****    0.0233
   99 H51        5.999     3.325     2.908 H          1 ****    0.0233
  100 H52       11.419    -1.362    -1.835 H          1 ****    0.0321
  101 H53       11.276     1.060    -2.465 H          1 ****    0.0233
  102 H54        9.498     0.950    -2.499 H          1 ****    0.0233
  103 H55       10.469     0.057    -3.690 H          1 ****    0.0233
  104 H56        8.396    -1.259    -1.884 H          1 ****    0.0233
  105 H57        9.397    -2.628    -1.376 H          1 ****    0.0233
  106 H58        9.407    -2.113    -3.091 H          1 ****    0.0233
  107 H59       25.882     0.637     1.953 H          1 ****    0.0624
  108 H60       24.919    -1.848     0.620 H          1 ****    0.2105
  109 H61       26.899     1.656    -0.665 H          1 ****    0.0380
  110 H62       27.041     1.194     1.043 H          1 ****    0.0434
@<TRIPOS>BOND
    1     1     2 1
    2     1    49 1
    3     1    50 1
    4     1    51 1
    5     2     3 1
    6     2     4 1
    7     2    52 1
    8     3    53 1
    9     3    54 1
   10     3    55 1
   11     4     5 1
   12     4    56 1
   13     4    57 1
   14     5     6 1
   15     5    43 1
   16     5    58 1
   17     6     7 1
   18     6    59 1
   19     7     8 2
   20     7     9 1
   21     9    10 1
   22     9    11 1
   23     9    60 1
   24    10    61 1
   25    10    62 1
   26    10    63 1
   27    11    12 1
   28    11    64 1
   29    12    13 2
   30    12    14 1
   31    14    15 1
   32    14    65 1
   33    14    66 1
   34    15    16 1
   35    15    17 1
   36    15    67 1
   37    16    68 1
   38    17    18 1
   39    17    22 1
   40    17    69 1
   41    18    19 1
   42    18    70 1
   43    18    71 1
   44    19    20 1
   45    19    21 1
   46    19    72 1
   47    20    73 1
   48    20    74 1
   49    20    75 1
   50    21    76 1
   51    21    77 1
   52    21    78 1
   53    22    23 1
   54    22    79 1
   55    23    24 2
   56    23    25 1
   57    25    26 1
   58    25    40 1
   59    25    80 1
   60    26    27 1
   61    26    81 1
   62    27    28 2
   63    27    29 1
   64    29    30 1
   65    29    37 1
   66    29    82 1
   67    30    31 1
   68    30    83 1
   69    31    32 2
   70    31    33 1
   71    33    34 1
   72    33    84 1
   73    33    85 1
   74    34    35 1
   75    34    36 1
   76    34    86 1
   77    35    87 1
   78    35    88 1
   79    35    89 1
   80    36    90 1
   81    36    91 1
   82    36    92 1
   83    37    38 1
   84    37    39 1
   85    37    93 1
   86    38    94 1
   87    38    95 1
   88    38    96 1
   89    39    97 1
   90    39    98 1
   91    39    99 1
   92    40    41 1
   93    40    42 1
   94    40   100 1
   95    41   101 1
   96    41   102 1
   97    41   103 1
   98    42   104 1
   99    42   105 1
  100    42   106 1
  101    43    44 1
  102    43    45 1
  103    43   107 1
  104    44   108 1
  105    45    46 1
  106    45   109 1
  107    45   110 1
  108    46    47 2
  109    46    48 1
