@<TRIPOS>MOLECULE
1s19_deposited_1
70  73  1  0  0
SMALL
GASTEIGER
@<TRIPOS>ATOM
    1 C1        -0.729    -3.912    -1.825 C.3        1 ****   -0.0588
    2 C2        -0.769    -3.873    -0.283 C.3        1 ****   -0.0228
    3 C3        -2.157    -3.546     0.185 C.2        1 ****   -0.0829
    4 C4        -3.210    -3.980    -0.506 C.2        1 ****   -0.0597
    5 C5        -4.301    -4.629     0.359 C.3        1 ****    0.0749
    6 O1        -4.627    -3.601     1.460 O.3        1 ****   -0.3887
    7 C6        -5.582    -4.727    -0.547 C.3        1 ****   -0.0116
    8 C7        -5.151    -6.137    -0.599 C.3        1 ****   -0.0473
    9 C8        -5.371    -5.321    -1.881 C.3        1 ****   -0.0473
   10 C9         0.229    -2.830     0.258 C.3        1 ****   -0.0294
   11 C10        1.691    -3.093    -0.225 C.3        1 ****   -0.0488
   12 C11        2.340    -1.654    -0.257 C.3        1 ****   -0.0459
   13 C12        1.191    -0.771     0.256 C.3        1 ****   -0.0143
   14 C13        1.253     0.679    -0.092 C.2        1 ****   -0.0666
   15 C14        2.423     1.265    -0.327 C.2        1 ****   -0.0625
   16 C15        2.488     2.710    -0.549 C.2        1 ****   -0.0587
   17 C16        3.659     3.297    -0.786 C.2        1 ****   -0.0403
   18 C17        4.880     2.476    -0.821 C.2        1 ****   -0.0234
   19 C18        6.231     3.116    -0.976 C.3        1 ****    0.0811
   20 C19        6.132     4.529    -1.569 C.3        1 ****    0.0037
   21 C20        5.131     5.325    -0.733 C.3        1 ****    0.0608
   22 C21        3.719     4.781    -1.011 C.3        1 ****   -0.0013
   23 O2         5.472     5.167     0.719 O.3        1 ****   -0.3927
   24 O3         7.146     2.245    -1.784 O.3        1 ****   -0.3883
   25 C22        4.794     1.155    -0.677 C.2        1 ****   -0.0930
   26 C23       -0.005     1.513     0.073 C.3        1 ****   -0.0314
   27 C24       -1.281     0.696    -0.329 C.3        1 ****   -0.0490
   28 C25       -1.275    -0.733     0.277 C.3        1 ****   -0.0467
   29 C26       -0.031    -1.435    -0.267 C.3        1 ****   -0.0227
   30 C27       -0.022    -1.443    -1.807 C.3        1 ****   -0.0588
   31 H1        -1.024    -2.939    -2.218 H          1 ****    0.0236
   32 H2        -1.422    -4.672    -2.185 H          1 ****    0.0236
   33 H3         0.281    -4.149    -2.160 H          1 ****    0.0236
   34 H4        -0.484    -4.855     0.096 H          1 ****    0.0345
   35 H5        -2.303    -2.955     1.088 H          1 ****    0.0576
   36 H6        -3.064    -4.570    -1.412 H          1 ****    0.0599
   37 H7        -4.003    -5.599     0.756 H          1 ****    0.0648
   38 H8        -3.964    -2.858     1.793 H          1 ****    0.2108
   39 H9        -6.418    -4.211    -0.075 H          1 ****    0.0332
   40 H10       -5.978    -6.827    -0.426 H          1 ****    0.0270
   41 H11       -4.088    -6.249    -0.382 H          1 ****    0.0270
   42 H12       -6.310    -5.592    -2.363 H          1 ****    0.0270
   43 H13       -4.421    -5.016    -2.320 H          1 ****    0.0270
   44 H14        0.104    -2.913     1.338 H          1 ****    0.0314
   45 H15        1.685    -3.523    -1.227 H          1 ****    0.0269
   46 H16        2.216    -3.726     0.490 H          1 ****    0.0269
   47 H17        3.189    -1.607     0.426 H          1 ****    0.0272
   48 H18        2.603    -1.379    -1.278 H          1 ****    0.0272
   49 H19        1.231    -0.713     1.344 H          1 ****    0.0354
   50 H20        3.335     0.669    -0.356 H          1 ****    0.0622
   51 H21        1.576     3.307    -0.519 H          1 ****    0.0625
   52 H22        6.659     3.221     0.022 H          1 ****    0.0652
   53 H23        7.109     5.012    -1.530 H          1 ****    0.0323
   54 H24        5.784     4.471    -2.601 H          1 ****    0.0323
   55 H25        5.169     6.383    -0.992 H          1 ****    0.0604
   56 H26        3.445     4.999    -2.043 H          1 ****    0.0342
   57 H27        3.007     5.273    -0.348 H          1 ****    0.0342
   58 H28        6.441     5.530     0.897 H          1 ****    0.2104
   59 H29        6.720     2.091    -2.731 H          1 ****    0.2109
   60 H30        3.823     0.683    -0.534 H          1 ****    0.0541
   61 H31        5.698     0.546    -0.702 H          1 ****    0.0541
   62 H32        0.066     2.400    -0.556 H          1 ****    0.0312
   63 H33       -0.094     1.827     1.113 H          1 ****    0.0312
   64 H34       -2.168     1.227     0.018 H          1 ****    0.0269
   65 H35       -1.330     0.622    -1.415 H          1 ****    0.0269
   66 H36       -2.170    -1.272    -0.036 H          1 ****    0.0272
   67 H37       -1.221    -0.674     1.364 H          1 ****    0.0272
   68 H38       -0.044    -0.413    -2.162 H          1 ****    0.0236
   69 H39       -0.915    -1.960    -2.159 H          1 ****    0.0236
   70 H40        0.871    -1.947    -2.177 H          1 ****    0.0272
@<TRIPOS>BOND
    1     1     2 1
    2     1    31 1
    3     1    32 1
    4     1    33 1
    5     2     3 1
    6     2    10 1
    7     2    34 1
    8     3     4 2
    9     3    35 1
   10     4     5 1
   11     4    36 1
   12     5     6 1
   13     5     7 1
   14     5    37 1
   15     6    38 1
   16     7     8 1
   17     7    39 1
   18     8     9 1
   19     8    40 1
   20     8    41 1
   21     9     7 1
   22     9    42 1
   23     9    43 1
   24    10    11 1
   25    10    44 1
   26    11    12 1
   27    11    45 1
   28    11    46 1
   29    12    13 1
   30    12    47 1
   31    12    48 1
   32    13    14 1
   33    13    49 1
   34    14    15 2
   35    14    26 1
   36    15    16 1
   37    15    50 1
   38    16    17 2
   39    16    51 1
   40    17    18 1
   41    18    19 1
   42    18    25 2
   43    19    20 1
   44    19    24 1
   45    19    52 1
   46    20    21 1
   47    20    53 1
   48    20    54 1
   49    21    22 1
   50    21    23 1
   51    21    55 1
   52    22    17 1
   53    22    56 1
   54    22    57 1
   55    23    58 1
   56    24    59 1
   57    25    60 1
   58    25    61 1
   59    26    27 1
   60    26    62 1
   61    26    63 1
   62    27    28 1
   63    27    64 1
   64    27    65 1
   65    28    29 1
   66    28    66 1
   67    28    67 1
   68    29    10 1
   69    29    13 1
   70    29    30 1
   71    30    68 1
   72    30    69 1
   73    30    70 1
