@<TRIPOS>MOLECULE
1uml_deposited_1
60  63  1  0  0
SMALL
GASTEIGER
@<TRIPOS>ATOM
    1 N1         2.204   -11.415     0.389 N.am       1 ****   -0.3238
    2 C1         2.213    -9.973     0.313 C.2        1 ****    0.2599
    3 O1         3.340    -9.331     0.302 O.2        1 ****   -0.2704
    4 C2         0.952    -9.236     0.247 C.ar       1 ****    0.1373
    5 C3         0.843    -7.855     0.172 C.ar       1 ****    0.0172
    6 N2        -0.498    -7.627     0.132 N.ar       1 ****   -0.2345
    7 C4        -1.209    -8.790     0.179 C.ar       1 ****    0.0762
    8 N3        -0.293    -9.812     0.252 N.ar       1 ****   -0.2380
    9 C5        -0.461    -6.418    -0.814 C.3        1 ****    0.0441
   10 C6        -1.924    -6.176    -1.263 C.3        1 ****    0.0594
   11 O2        -1.001    -6.368    -2.430 O.3        1 ****   -0.3947
   12 C7        -0.041    -5.179     0.068 C.3        1 ****   -0.0209
   13 C8        -0.735    -3.803    -0.000 C.3        1 ****    0.0091
   14 N4         0.266    -2.713    -0.000 N.ar       1 ****   -0.2510
   15 C9         1.633    -2.880    -0.000 C.ar       1 ****   -0.0147
   16 C10        2.224    -1.611    -0.000 C.ar       1 ****   -0.0423
   17 C11        1.178    -0.698    -0.000 C.ar       1 ****   -0.0061
   18 C12        1.228     0.686    -0.000 C.ar       1 ****   -0.0515
   19 C13        0.008     1.362     0.000 C.ar       1 ****   -0.0401
   20 C14       -1.207     0.669    -0.000 C.ar       1 ****    0.0340
   21 N5        -2.463     1.418    -0.000 N.am       1 ****   -0.2854
   22 C15       -2.534     2.880     0.000 C.2        1 ****    0.2162
   23 O3        -1.462     3.609     0.000 O.2        1 ****   -0.2774
   24 C16       -3.882     3.551     0.000 C.3        1 ****    0.0287
   25 C17       -3.700     5.084     0.000 C.3        1 ****   -0.0193
   26 C18       -5.045     5.766     0.000 C.ar       1 ****   -0.0476
   27 C19       -6.211     5.011     0.000 C.ar       1 ****   -0.0591
   28 C20       -7.449     5.644    -0.000 C.ar       1 ****   -0.0620
   29 C21       -7.519     7.032    -0.000 C.ar       1 ****   -0.0623
   30 C22       -6.352     7.787     0.000 C.ar       1 ****   -0.0620
   31 C23       -5.115     7.155     0.000 C.ar       1 ****   -0.0591
   32 C24       -1.235    -0.726    -0.000 C.ar       1 ****   -0.0216
   33 C25       -0.013    -1.376    -0.000 C.ar       1 ****    0.0303
   34 H1         3.127   -11.954     0.437 H          1 ****    0.1458
   35 H2         1.274   -11.944     0.398 H          1 ****    0.1458
   36 H3         1.648    -7.120     0.150 H          1 ****    0.0781
   37 H4        -2.295    -8.890     0.161 H          1 ****    0.0978
   38 H5         0.197    -6.556    -1.672 H          1 ****    0.0500
   39 H6        -2.694    -6.948    -1.279 H          1 ****    0.0580
   40 H7        -2.391    -5.194    -1.327 H          1 ****    0.0580
   41 H8        -0.551    -7.314    -2.372 H          1 ****    0.2101
   42 H9         0.534    -5.252     0.991 H          1 ****    0.0297
   43 H10        0.621    -5.296    -0.790 H          1 ****    0.0297
   44 H11       -1.393    -3.687     0.861 H          1 ****    0.0439
   45 H12       -1.331    -3.744    -0.911 H          1 ****    0.0439
   46 H13        2.162    -3.833    -0.001 H          1 ****    0.0755
   47 H14        3.291    -1.386    -0.000 H          1 ****    0.0639
   48 H15        2.177     1.223     0.000 H          1 ****    0.0630
   49 H16        0.001     2.452     0.000 H          1 ****    0.0642
   50 H17       -3.380     0.867    -0.000 H          1 ****    0.1556
   51 H18       -4.436     3.252    -0.890 H          1 ****    0.0367
   52 H19       -4.437     3.252     0.889 H          1 ****    0.0367
   53 H20       -3.143     5.383    -0.888 H          1 ****    0.0321
   54 H21       -3.144     5.382     0.889 H          1 ****    0.0321
   55 H22       -6.155     3.922    -0.000 H          1 ****    0.0625
   56 H23       -8.364     5.052    -0.000 H          1 ****    0.0622
   57 H24       -8.489     7.528    -0.000 H          1 ****    0.0622
   58 H25       -6.407     8.876     0.000 H          1 ****    0.0622
   59 H26       -4.200     7.747     0.000 H          1 ****    0.0625
   60 H27       -2.175    -1.277    -0.000 H          1 ****    0.0692
@<TRIPOS>BOND
    1     1     2 1
    2     1    34 1
    3     1    35 1
    4     2     3 2
    5     2     4 1
    6     4     5 2
    7     5     6 1
    8     5    36 1
    9     6     7 1
   10     6     9 1
   11     7     8 2
   12     7    37 1
   13     8     4 1
   14     9    10 1
   15     9    12 1
   16     9    38 1
   17    10    11 1
   18    10    39 1
   19    10    40 1
   20    11    41 1
   21    12    13 1
   22    12    42 1
   23    12    43 1
   24    13    14 1
   25    13    44 1
   26    13    45 1
   27    14    15 1
   28    15    16 2
   29    15    46 1
   30    16    17 1
   31    16    47 1
   32    17    18 2
   33    18    19 1
   34    18    48 1
   35    19    20 2
   36    19    49 1
   37    20    21 1
   38    20    32 1
   39    21    22 1
   40    21    50 1
   41    22    23 2
   42    22    24 1
   43    24    25 1
   44    24    51 1
   45    24    52 1
   46    25    26 1
   47    25    53 1
   48    25    54 1
   49    26    27 2
   50    27    28 1
   51    27    55 1
   52    28    29 2
   53    28    56 1
   54    29    30 1
   55    29    57 1
   56    30    31 2
   57    30    58 1
   58    31    26 1
   59    31    59 1
   60    32    33 2
   61    32    60 1
   62    33    14 1
   63    33    17 1
