@<TRIPOS>MOLECULE
1ydt_deposited_1
48  50  1  0  0
SMALL
GASTEIGER
@<TRIPOS>ATOM
    1 Br1       10.059   -13.841     0.562 Br         1 ****   -0.0509
    2 C1         8.566   -12.723     0.492 C.ar       1 ****    0.0175
    3 C2         8.734   -11.344     0.463 C.ar       1 ****   -0.0474
    4 C3         7.622   -10.511     0.411 C.ar       1 ****   -0.0539
    5 C4         6.345   -11.058     0.389 C.ar       1 ****   -0.0258
    6 C5         5.167   -10.186     0.335 C.2        1 ****   -0.0556
    7 C6         5.300    -8.860     0.307 C.2        1 ****   -0.0496
    8 C7         4.069    -7.992     0.252 C.3        1 ****    0.0514
    9 N1         4.462    -6.521     0.235 N.4        1 ****    0.1270
   10 C8         3.209    -5.648     0.181 C.3        1 ****    0.0426
   11 C9         3.631    -4.164     0.162 C.3        1 ****    0.0052
   12 N2         2.443    -3.267     0.103 N.am       1 ****   -0.3679
   13 S1         2.700    -1.553    -0.000 S.O2       1 ****    1.4149
   14 O1         3.558    -1.089     1.217 O.2        1 ****   -0.5685
   15 O2         3.475    -1.231    -1.314 O.2        1 ****   -0.5685
   16 C10        1.185    -0.680    -0.000 C.ar       1 ****   -0.0336
   17 C11        1.180     0.709     0.000 C.ar       1 ****   -0.0711
   18 C12       -0.027     1.399     0.000 C.ar       1 ****   -0.0628
   19 C13       -1.228     0.700    -0.000 C.ar       1 ****   -0.0530
   20 C14       -1.221    -0.690    -0.000 C.ar       1 ****   -0.0013
   21 C15       -2.419    -1.395    -0.000 C.ar       1 ****    0.0345
   22 N3        -2.410    -2.767    -0.001 N.ar       1 ****   -0.2641
   23 C16       -1.222    -3.455    -0.000 C.ar       1 ****    0.0273
   24 C17       -0.015    -2.767    -0.000 C.ar       1 ****   -0.0372
   25 C18       -0.016    -1.378    -0.000 C.ar       1 ****   -0.0247
   26 C19        6.178   -12.438     0.418 C.ar       1 ****   -0.0539
   27 C20        7.289   -13.271     0.470 C.ar       1 ****   -0.0474
   28 H1         9.736   -10.915     0.481 H          1 ****    0.0634
   29 H2         7.753    -9.429     0.389 H          1 ****    0.0629
   30 H3         4.170   -10.628     0.317 H          1 ****    0.0626
   31 H4         6.291    -8.408     0.323 H          1 ****    0.0613
   32 H5         3.503    -8.224    -0.650 H          1 ****    0.0727
   33 H6         3.447    -8.189     1.125 H          1 ****    0.0727
   34 H7         5.017    -6.291     1.121 H          1 ****    0.2281
   35 H8         5.070    -6.324    -0.623 H          1 ****    0.2281
   36 H9         2.592    -5.839     1.059 H          1 ****    0.0692
   37 H10        2.644    -5.877    -0.723 H          1 ****    0.0692
   38 H11        4.203    -3.942     1.063 H          1 ****    0.0440
   39 H12        4.262    -3.980    -0.707 H          1 ****    0.0440
   40 H13        1.453    -3.671     0.124 H          1 ****    0.0912
   41 H14        2.122     1.258     0.000 H          1 ****    0.0609
   42 H15       -0.031     2.489     0.000 H          1 ****    0.0622
   43 H16       -2.174     1.241    -0.000 H          1 ****    0.0629
   44 H17       -3.367    -0.857    -0.000 H          1 ****    0.0846
   45 H18       -1.226    -4.545    -0.001 H          1 ****    0.0839
   46 H19        0.927    -3.315    -0.000 H          1 ****    0.0644
   47 H20        5.176   -12.866     0.400 H          1 ****    0.0629
   48 H21        7.159   -14.353     0.492 H          1 ****    0.0656
@<TRIPOS>BOND
    1     1     2 1
    2     2     3 2
    3     3     4 1
    4     3    28 1
    5     4     5 2
    6     4    29 1
    7     5     6 1
    8     5    26 1
    9     6     7 2
   10     6    30 1
   11     7     8 1
   12     7    31 1
   13     8     9 1
   14     8    32 1
   15     8    33 1
   16     9    10 1
   17     9    34 1
   18     9    35 1
   19    10    11 1
   20    10    36 1
   21    10    37 1
   22    11    12 1
   23    11    38 1
   24    11    39 1
   25    12    13 1
   26    12    40 1
   27    13    14 2
   28    13    15 2
   29    13    16 1
   30    16    17 2
   31    17    18 1
   32    17    41 1
   33    18    19 2
   34    18    42 1
   35    19    20 1
   36    19    43 1
   37    20    21 2
   38    21    22 1
   39    21    44 1
   40    22    23 2
   41    23    24 1
   42    23    45 1
   43    24    25 2
   44    24    46 1
   45    25    16 1
   46    25    20 1
   47    26    27 2
   48    26    47 1
   49    27     2 1
   50    27    48 1
