@<TRIPOS>MOLECULE
2hnx_ligand
49  48  1  0  0
SMALL
GASTEIGER
@<TRIPOS>ATOM
    1 C1         0.287    -0.045    -0.000 C.3        1 ****   -0.0654
    2 C2         1.554     0.834    -0.000 C.3        1 ****   -0.0562
    3 C3         2.810    -0.063     0.000 C.3        1 ****   -0.0536
    4 C4         4.078     0.820    -0.000 C.3        1 ****   -0.0534
    5 C5         5.342    -0.073     0.000 C.3        1 ****   -0.0534
    6 C6         6.610     0.816    -0.000 C.3        1 ****   -0.0534
    7 C7         7.881    -0.070     0.000 C.3        1 ****   -0.0534
    8 C8         9.149     0.824    -0.000 C.3        1 ****   -0.0534
    9 C9        10.425    -0.058    -0.000 C.3        1 ****   -0.0534
   10 C10       11.692     0.838    -0.000 C.3        1 ****   -0.0534
   11 C11       12.966    -0.045    -0.000 C.3        1 ****   -0.0534
   12 C12       14.238     0.843    -0.000 C.3        1 ****   -0.0533
   13 C13       15.501    -0.054     0.000 C.3        1 ****   -0.0529
   14 C14       16.784     0.814     0.000 C.3        1 ****   -0.0458
   15 C15       18.026    -0.107     0.000 C.3        1 ****    0.0141
   16 C16       19.292     0.712     0.000 C.2        1 ****    0.1858
   17 O1        20.444     0.125     0.000 O.co2      1 ****   -0.6398
   18 O2        19.219     2.137     0.000 O.co2      1 ****   -0.6398
   19 H1         0.283    -0.675     0.890 H          1 ****    0.0230
   20 H2         0.283    -0.675    -0.889 H          1 ****    0.0230
   21 H3        -0.599     0.590    -0.000 H          1 ****    0.0230
   22 H4         1.559     1.464    -0.890 H          1 ****    0.0263
   23 H5         1.559     1.465     0.889 H          1 ****    0.0263
   24 H6         2.807    -0.692     0.890 H          1 ****    0.0266
   25 H7         2.808    -0.693    -0.889 H          1 ****    0.0266
   26 H8         4.081     1.450    -0.889 H          1 ****    0.0266
   27 H9         4.082     1.451     0.888 H          1 ****    0.0266
   28 H10        5.341    -0.702     0.890 H          1 ****    0.0266
   29 H11        5.342    -0.703    -0.889 H          1 ****    0.0266
   30 H12        6.610     1.447    -0.889 H          1 ****    0.0266
   31 H13        6.610     1.448     0.888 H          1 ****    0.0266
   32 H14        7.884    -0.701     0.889 H          1 ****    0.0266
   33 H15        7.884    -0.702    -0.888 H          1 ****    0.0266
   34 H16        9.146     1.455    -0.889 H          1 ****    0.0266
   35 H17        9.147     1.456     0.888 H          1 ****    0.0266
   36 H18       10.429    -0.689     0.889 H          1 ****    0.0266
   37 H19       10.429    -0.690    -0.888 H          1 ****    0.0266
   38 H20       11.689     1.469    -0.889 H          1 ****    0.0266
   39 H21       11.690     1.470     0.888 H          1 ****    0.0266
   40 H22       12.968    -0.677     0.888 H          1 ****    0.0266
   41 H23       12.969    -0.678    -0.888 H          1 ****    0.0266
   42 H24       14.241     1.473    -0.890 H          1 ****    0.0266
   43 H25       14.242     1.474     0.889 H          1 ****    0.0266
   44 H26       15.494    -0.686     0.888 H          1 ****    0.0266
   45 H27       15.495    -0.687    -0.887 H          1 ****    0.0266
   46 H28       16.798     1.443    -0.891 H          1 ****    0.0271
   47 H29       16.798     1.443     0.890 H          1 ****    0.0271
   48 H30       18.006    -0.739     0.888 H          1 ****    0.0352
   49 H31       18.007    -0.740    -0.887 H          1 ****    0.0379
@<TRIPOS>BOND
    1     1     2 1
    2     1    19 1
    3     1    20 1
    4     1    21 1
    5     2     3 1
    6     2    22 1
    7     2    23 1
    8     3     4 1
    9     3    24 1
   10     3    25 1
   11     4     5 1
   12     4    26 1
   13     4    27 1
   14     5     6 1
   15     5    28 1
   16     5    29 1
   17     6     7 1
   18     6    30 1
   19     6    31 1
   20     7     8 1
   21     7    32 1
   22     7    33 1
   23     8     9 1
   24     8    34 1
   25     8    35 1
   26     9    10 1
   27     9    36 1
   28     9    37 1
   29    10    11 1
   30    10    38 1
   31    10    39 1
   32    11    12 1
   33    11    40 1
   34    11    41 1
   35    12    13 1
   36    12    42 1
   37    12    43 1
   38    13    14 1
   39    13    44 1
   40    13    45 1
   41    14    15 1
   42    14    46 1
   43    14    47 1
   44    15    16 1
   45    15    48 1
   46    15    49 1
   47    16    17 2
   48    16    18 1
