@<TRIPOS>MOLECULE
3l3n_ligand
70  72  1  0  0
SMALL
GASTEIGER
@<TRIPOS>ATOM
    1 N1        -2.248    -8.317     6.688 N.4        1 ****    0.1141
    2 C1        -1.477    -8.448     5.385 C.3        1 ****    0.0302
    3 C2        -2.430    -8.213     4.200 C.3        1 ****   -0.0218
    4 C3        -1.658    -8.403     2.887 C.3        1 ****   -0.0459
    5 C4        -2.627    -8.280     1.695 C.3        1 ****   -0.0096
    6 C5        -1.875    -8.678     0.415 C.3        1 ****    0.1228
    7 N2        -1.313   -10.128     0.494 N.4        1 ****    0.1389
    8 C6        -2.433   -11.213     0.522 C.3        1 ****    0.1127
    9 C7        -1.803   -12.613     0.416 C.3        1 ****   -0.0068
   10 C8        -2.957   -13.644     0.480 C.3        1 ****   -0.0238
   11 C9        -2.434   -15.053     0.526 C.ar       1 ****   -0.0479
   12 C10       -1.067   -15.294     0.580 C.ar       1 ****   -0.0591
   13 C11       -0.595   -16.599     0.664 C.ar       1 ****   -0.0620
   14 C12       -1.490   -17.661     0.695 C.ar       1 ****   -0.0623
   15 C13       -2.858   -17.419     0.641 C.ar       1 ****   -0.0620
   16 C14       -3.330   -16.115     0.556 C.ar       1 ****   -0.0591
   17 C15       -3.184   -11.203     1.823 C.2        1 ****    0.2233
   18 O1        -2.574   -11.519     2.923 O.co2      1 ****   -0.6353
   19 O2        -4.562   -10.848     1.849 O.co2      1 ****   -0.6353
   20 C16       -0.771    -7.675     0.224 C.2        1 ****    0.2505
   21 O3         0.464    -8.061     0.148 O.2        1 ****   -0.2733
   22 N3        -1.103    -6.264     0.185 N.am       1 ****   -0.3012
   23 C17       -0.043    -5.231     0.260 C.3        1 ****    0.0933
   24 C18       -0.714    -3.856     0.002 C.3        1 ****    0.0000
   25 C19        0.289    -2.727    -0.000 C.ar       1 ****   -0.0260
   26 C20        1.676    -2.864    -0.000 C.ar       1 ****   -0.0144
   27 N4         2.229    -1.595    -0.000 N.ar       1 ****   -0.2646
   28 C21        1.188    -0.699    -0.000 C.ar       1 ****    0.0260
   29 C22        1.235     0.685    -0.000 C.ar       1 ****   -0.0433
   30 C23        0.014     1.360     0.000 C.ar       1 ****   -0.0607
   31 C24       -1.199     0.664     0.000 C.ar       1 ****   -0.0616
   32 C25       -1.228    -0.730    -0.000 C.ar       1 ****   -0.0531
   33 C26       -0.004    -1.377    -0.000 C.ar       1 ****   -0.0031
   34 C27        0.491    -5.256     1.663 C.2        1 ****    0.2062
   35 O4        -0.294    -4.976     2.656 O.co2      1 ****   -0.6376
   36 O5         1.853    -5.592     1.902 O.co2      1 ****   -0.6376
   37 H1        -3.033    -9.043     6.714 H          1 ****    0.2258
   38 H2        -2.667    -7.336     6.759 H          1 ****    0.2258
   39 H3        -1.585    -8.481     7.513 H          1 ****    0.2258
   40 H4        -0.677    -7.709     5.360 H          1 ****    0.0678
   41 H5        -1.050    -9.449     5.314 H          1 ****    0.0678
   42 H6        -2.826    -7.199     4.246 H          1 ****    0.0302
   43 H7        -3.251    -8.929     4.245 H          1 ****    0.0302
   44 H8        -0.886    -7.638     2.807 H          1 ****    0.0269
   45 H9        -1.194    -9.389     2.876 H          1 ****    0.0269
   46 H10       -2.975    -7.250     1.609 H          1 ****    0.0311
   47 H11       -3.476    -8.948     1.843 H          1 ****    0.0311
   48 H12       -2.555    -8.672    -0.437 H          1 ****    0.0822
   49 H13       -0.716   -10.223     1.377 H          1 ****    0.2288
   50 H14       -0.680   -10.304    -0.351 H          1 ****    0.2288
   51 H15       -3.103   -10.991    -0.309 H          1 ****    0.0810
   52 H16       -1.276   -12.709    -0.534 H          1 ****    0.0314
   53 H17       -1.118   -12.774     1.249 H          1 ****    0.0314
   54 H18       -3.593   -13.527    -0.397 H          1 ****    0.0317
   55 H19       -3.556   -13.456     1.371 H          1 ****    0.0317
   56 H20       -0.365   -14.460     0.556 H          1 ****    0.0625
   57 H21        0.478   -16.788     0.706 H          1 ****    0.0622
   58 H22       -1.119   -18.684     0.761 H          1 ****    0.0622
   59 H23       -3.560   -18.253     0.664 H          1 ****    0.0622
   60 H24       -4.403   -15.926     0.514 H          1 ****    0.0625
   61 H25       -2.126    -5.964     0.101 H          1 ****    0.1502
   62 H26        0.754    -5.405    -0.462 H          1 ****    0.0596
   63 H27       -1.458    -3.670     0.777 H          1 ****    0.0340
   64 H28       -1.223    -3.883    -0.962 H          1 ****    0.0340
   65 H29        2.228    -3.804    -0.001 H          1 ****    0.0756
   66 H30        3.272    -1.357    -0.000 H          1 ****    0.1336
   67 H31        2.183     1.223     0.000 H          1 ****    0.0639
   68 H32        0.005     2.450     0.000 H          1 ****    0.0623
   69 H33       -2.136     1.220     0.000 H          1 ****    0.0622
   70 H34       -2.168    -1.283    -0.000 H          1 ****    0.0660
@<TRIPOS>BOND
    1     1     2 1
    2     1    37 1
    3     1    38 1
    4     1    39 1
    5     2     3 1
    6     2    40 1
    7     2    41 1
    8     3     4 1
    9     3    42 1
   10     3    43 1
   11     4     5 1
   12     4    44 1
   13     4    45 1
   14     5     6 1
   15     5    46 1
   16     5    47 1
   17     6     7 1
   18     6    20 1
   19     6    48 1
   20     7     8 1
   21     7    49 1
   22     7    50 1
   23     8     9 1
   24     8    17 1
   25     8    51 1
   26     9    10 1
   27     9    52 1
   28     9    53 1
   29    10    11 1
   30    10    54 1
   31    10    55 1
   32    11    12 2
   33    12    13 1
   34    12    56 1
   35    13    14 2
   36    13    57 1
   37    14    15 1
   38    14    58 1
   39    15    16 2
   40    15    59 1
   41    16    11 1
   42    16    60 1
   43    17    18 2
   44    17    19 1
   45    20    21 2
   46    20    22 1
   47    22    23 1
   48    22    61 1
   49    23    24 1
   50    23    34 1
   51    23    62 1
   52    24    25 1
   53    24    63 1
   54    24    64 1
   55    25    26 2
   56    26    27 1
   57    26    65 1
   58    27    28 1
   59    27    66 1
   60    28    29 2
   61    29    30 1
   62    29    67 1
   63    30    31 2
   64    30    68 1
   65    31    32 1
   66    31    69 1
   67    32    33 2
   68    32    70 1
   69    33    25 1
   70    33    28 1
   71    34    35 2
   72    34    36 1
