@<TRIPOS>MOLECULE
3nhi_ligand
58  57  1  0  0
SMALL
GASTEIGER
@<TRIPOS>ATOM
    1 C1         0.548     0.034    -0.000 C.3        1 ****   -0.0654
    2 C2         1.840     0.872    -0.000 C.3        1 ****   -0.0562
    3 C3         3.062    -0.066     0.000 C.3        1 ****   -0.0533
    4 C4         4.357     0.770    -0.000 C.3        1 ****   -0.0499
    5 C5         5.578    -0.171     0.000 C.3        1 ****   -0.0351
    6 C6         6.844     0.640     0.000 C.2        1 ****   -0.0886
    7 C7         8.028     0.029     0.000 C.2        1 ****   -0.0883
    8 C8         8.102    -1.474     0.000 C.3        1 ****   -0.0316
    9 C9         9.579    -1.926     0.002 C.3        1 ****   -0.0316
   10 C10        9.647    -3.430     0.002 C.2        1 ****   -0.0883
   11 C11       10.827    -4.051     0.005 C.2        1 ****   -0.0886
   12 C12       10.885    -5.556     0.005 C.3        1 ****   -0.0351
   13 C13       12.355    -6.031     0.004 C.3        1 ****   -0.0498
   14 C14       12.399    -7.575     0.002 C.3        1 ****   -0.0506
   15 C15       13.864    -8.059    -0.001 C.3        1 ****   -0.0270
   16 C16       14.405    -9.234     0.887 C.3        1 ****    0.0540
   17 O1        13.204   -10.124     1.216 O.3        1 ****   -0.3932
   18 C17       15.363   -10.089    -0.008 C.3        1 ****   -0.0266
   19 C18       15.398   -11.631    -0.008 C.3        1 ****   -0.0434
   20 C19       16.862   -12.111    -0.008 C.3        1 ****    0.0142
   21 C20       16.905   -13.614    -0.006 C.2        1 ****    0.1858
   22 O2        18.043   -14.231    -0.005 O.co2      1 ****   -0.6398
   23 O3        15.690   -14.360    -0.003 O.co2      1 ****   -0.6398
   24 H1         0.522    -0.595     0.890 H          1 ****    0.0230
   25 H2         0.522    -0.595    -0.890 H          1 ****    0.0230
   26 H3        -0.317     0.698    -0.000 H          1 ****    0.0230
   27 H4         1.866     1.500    -0.891 H          1 ****    0.0263
   28 H5         1.866     1.502     0.889 H          1 ****    0.0263
   29 H6         3.037    -0.695     0.890 H          1 ****    0.0266
   30 H7         3.038    -0.696    -0.889 H          1 ****    0.0266
   31 H8         4.383     1.399    -0.890 H          1 ****    0.0269
   32 H9         4.384     1.400     0.889 H          1 ****    0.0269
   33 H10        5.551    -0.800     0.890 H          1 ****    0.0309
   34 H11        5.552    -0.801    -0.889 H          1 ****    0.0309
   35 H12        6.793     1.729     0.000 H          1 ****    0.0572
   36 H13        8.945     0.619    -0.000 H          1 ****    0.0572
   37 H14        7.604    -1.862     0.889 H          1 ****    0.0312
   38 H15        7.606    -1.863    -0.889 H          1 ****    0.0312
   39 H16       10.077    -1.540    -0.888 H          1 ****    0.0312
   40 H17       10.076    -1.540     0.892 H          1 ****    0.0312
   41 H18        8.727    -4.015     0.000 H          1 ****    0.0572
   42 H19       11.749    -3.469     0.006 H          1 ****    0.0572
   43 H20       10.382    -5.937     0.894 H          1 ****    0.0309
   44 H21       10.382    -5.939    -0.883 H          1 ****    0.0309
   45 H22       12.859    -5.655     0.895 H          1 ****    0.0269
   46 H23       12.859    -5.652    -0.885 H          1 ****    0.0269
   47 H24       11.894    -7.953     0.891 H          1 ****    0.0267
   48 H25       11.892    -7.951    -0.887 H          1 ****    0.0267
   49 H26       14.370    -7.682    -0.890 H          1 ****    0.0292
   50 H27       14.372    -7.688     0.889 H          1 ****    0.0292
   51 H28       14.910    -8.865     1.779 H          1 ****    0.0600
   52 H29       12.206    -9.797     1.217 H          1 ****    0.2104
   53 H30       15.868    -9.715    -0.899 H          1 ****    0.0293
   54 H31       15.872    -9.715     0.880 H          1 ****    0.0293
   55 H32       14.893   -12.007    -0.898 H          1 ****    0.0272
   56 H33       14.893   -12.006     0.882 H          1 ****    0.0272
   57 H34       17.367   -11.736    -0.898 H          1 ****    0.0352
   58 H35       17.369   -11.733     0.880 H          1 ****    0.0382
@<TRIPOS>BOND
    1     1     2 1
    2     1    24 1
    3     1    25 1
    4     1    26 1
    5     2     3 1
    6     2    27 1
    7     2    28 1
    8     3     4 1
    9     3    29 1
   10     3    30 1
   11     4     5 1
   12     4    31 1
   13     4    32 1
   14     5     6 1
   15     5    33 1
   16     5    34 1
   17     6     7 2
   18     6    35 1
   19     7     8 1
   20     7    36 1
   21     8     9 1
   22     8    37 1
   23     8    38 1
   24     9    10 1
   25     9    39 1
   26     9    40 1
   27    10    11 2
   28    10    41 1
   29    11    12 1
   30    11    42 1
   31    12    13 1
   32    12    43 1
   33    12    44 1
   34    13    14 1
   35    13    45 1
   36    13    46 1
   37    14    15 1
   38    14    47 1
   39    14    48 1
   40    15    16 1
   41    15    49 1
   42    15    50 1
   43    16    17 1
   44    16    18 1
   45    16    51 1
   46    17    52 1
   47    18    19 1
   48    18    53 1
   49    18    54 1
   50    19    20 1
   51    19    55 1
   52    19    56 1
   53    20    21 1
   54    20    57 1
   55    20    58 1
   56    21    22 2
   57    21    23 1
