@<TRIPOS>MOLECULE
4djp_ligand
79  80  1  0  0
SMALL
GASTEIGER
@<TRIPOS>ATOM
    1 C1         4.778     2.990    -4.234 C.3        1 ****   -0.0651
    2 C2         3.737     1.924    -3.842 C.3        1 ****   -0.0525
    3 C3         3.273     1.533    -2.389 C.3        1 ****   -0.0341
    4 C4         4.439     2.024    -1.405 C.3        1 ****   -0.0614
    5 C5         3.283    -0.066    -2.333 C.3        1 ****   -0.0217
    6 N1         3.786    -1.023    -1.266 N.am       1 ****   -0.3544
    7 C6         5.085    -1.818    -1.407 C.3        1 ****    0.0041
    8 C7         5.876    -2.244    -2.727 C.3        1 ****    0.0830
    9 O1         5.569    -1.166    -3.779 O.3        1 ****   -0.3900
   10 C8         7.402    -2.109    -2.404 C.3        1 ****    0.0557
   11 C9         8.449    -1.444    -3.324 C.3        1 ****   -0.0067
   12 C10        9.752    -2.193    -3.282 C.ar       1 ****   -0.0461
   13 C11        9.987    -3.158    -2.312 C.ar       1 ****   -0.0590
   14 C12       11.223    -3.793    -2.249 C.ar       1 ****   -0.0620
   15 C13       12.221    -3.462    -3.157 C.ar       1 ****   -0.0623
   16 C14       11.986    -2.495    -4.128 C.ar       1 ****   -0.0620
   17 C15       10.751    -1.860    -4.190 C.ar       1 ****   -0.0590
   18 N2         7.059    -3.492    -2.875 N.am       1 ****   -0.2853
   19 C16        6.625    -3.761    -4.244 C.2        1 ****    0.3509
   20 O2         6.652    -2.835    -5.150 O.2        1 ****   -0.2426
   21 O3         6.121    -5.078    -4.598 O.3        1 ****   -0.2996
   22 C17        5.672    -5.050    -6.028 C.3        1 ****    0.0699
   23 C18        4.369    -5.798    -6.514 C.3        1 ****    0.0663
   24 C19        4.141    -6.998    -5.519 C.3        1 ****   -0.0508
   25 C20        4.723    -6.430    -7.867 C.2        1 ****    0.2657
   26 O4         4.886    -5.370    -8.597 O.2        1 ****   -0.2662
   27 O5         4.033    -7.596    -8.414 O.3        1 ****   -0.3191
   28 C21        3.621    -7.319    -9.829 C.3        1 ****    0.0452
   29 S1         2.694    -1.555    -0.006 S.O2       1 ****    1.4172
   30 O6         3.389    -1.378     1.378 O.2        1 ****   -0.5684
   31 O7         2.394    -3.070    -0.222 O.2        1 ****   -0.5684
   32 C22        1.173    -0.678    -0.000 C.ar       1 ****   -0.0413
   33 C23        1.174     0.712     0.000 C.ar       1 ****   -0.0691
   34 C24       -0.029     1.407     0.000 C.ar       1 ****   -0.0331
   35 C25       -1.233     0.712    -0.000 C.ar       1 ****    0.0744
   36 O8        -2.501     1.445    -0.000 O.3        1 ****   -0.3494
   37 C26       -2.250     2.927     0.000 C.3        1 ****    0.0422
   38 C27       -1.234    -0.678    -0.000 C.ar       1 ****   -0.0331
   39 C28       -0.030    -1.373    -0.000 C.ar       1 ****   -0.0691
   40 H1         5.716     2.501    -4.497 H          1 ****    0.0230
   41 H2         4.944     3.662    -3.392 H          1 ****    0.0230
   42 H3         4.413     3.561    -5.088 H          1 ****    0.0230
   43 H4         3.570     1.252    -4.683 H          1 ****    0.0266
   44 H5         2.799     2.413    -3.579 H          1 ****    0.0266
   45 H6         2.296     1.948    -2.143 H          1 ****    0.0311
   46 H7         3.482     2.483    -1.156 H          1 ****    0.0233
   47 H8         5.156     2.807    -1.651 H          1 ****    0.0233
   48 H9         4.802     1.440    -0.559 H          1 ****    0.0233
   49 H10        2.322     0.338    -2.015 H          1 ****    0.0408
   50 H11        3.112    -0.626    -3.252 H          1 ****    0.0408
   51 H12        5.546    -1.903    -0.423 H          1 ****    0.0433
   52 H13        4.838    -2.832    -1.722 H          1 ****    0.0433
   53 H14        5.621    -3.250    -3.061 H          1 ****    0.0632
   54 H15        4.717    -0.552    -3.771 H          1 ****    0.2105
   55 H16        7.819    -2.192    -1.400 H          1 ****    0.0535
   56 H17        8.074    -1.434    -4.348 H          1 ****    0.0336
   57 H18        8.614    -0.417    -3.000 H          1 ****    0.0336
   58 H19        9.204    -3.418    -1.600 H          1 ****    0.0625
   59 H20       11.408    -4.551    -1.488 H          1 ****    0.0622
   60 H21       13.189    -3.960    -3.107 H          1 ****    0.0622
   61 H22       12.769    -2.235    -4.839 H          1 ****    0.0622
   62 H23       10.566    -1.102    -4.951 H          1 ****    0.0625
   63 H24        7.135    -4.307    -2.186 H          1 ****    0.1521
   64 H25        6.494    -4.718    -6.662 H          1 ****    0.0582
   65 H26        4.833    -4.363    -6.132 H          1 ****    0.0582
   66 H27        3.503    -5.138    -6.572 H          1 ****    0.0430
   67 H28        3.284    -6.326    -5.550 H          1 ****    0.0239
   68 H29        4.532    -7.033    -4.502 H          1 ****    0.0239
   69 H30        3.839    -7.997    -5.833 H          1 ****    0.0239
   70 H31        4.506    -7.107   -10.429 H          1 ****    0.0536
   71 H32        2.953    -6.459    -9.851 H          1 ****    0.0536
   72 H33        3.107    -8.190   -10.236 H          1 ****    0.0536
   73 H34        2.118     1.257     0.000 H          1 ****    0.0610
   74 H35       -0.029     2.497     0.000 H          1 ****    0.0649
   75 H36       -1.677     3.192    -0.888 H          1 ****    0.0535
   76 H37       -1.677     3.191     0.889 H          1 ****    0.0535
   77 H38       -3.199     3.464     0.000 H          1 ****    0.0535
   78 H39       -2.178    -1.223    -0.000 H          1 ****    0.0649
   79 H40       -0.030    -2.463    -0.000 H          1 ****    0.0645
@<TRIPOS>BOND
    1     1     2 1
    2     1    40 1
    3     1    41 1
    4     1    42 1
    5     2     3 1
    6     2    43 1
    7     2    44 1
    8     3     4 1
    9     3     5 1
   10     3    45 1
   11     4    46 1
   12     4    47 1
   13     4    48 1
   14     5     6 1
   15     5    49 1
   16     5    50 1
   17     6     7 1
   18     6    29 1
   19     7     8 1
   20     7    51 1
   21     7    52 1
   22     8     9 1
   23     8    10 1
   24     8    53 1
   25     9    54 1
   26    10    11 1
   27    10    18 1
   28    10    55 1
   29    11    12 1
   30    11    56 1
   31    11    57 1
   32    12    13 2
   33    13    14 1
   34    13    58 1
   35    14    15 2
   36    14    59 1
   37    15    16 1
   38    15    60 1
   39    16    17 2
   40    16    61 1
   41    17    12 1
   42    17    62 1
   43    18    19 1
   44    18    63 1
   45    19    20 2
   46    19    21 1
   47    21    22 1
   48    22    23 1
   49    22    64 1
   50    22    65 1
   51    23    24 1
   52    23    25 1
   53    23    66 1
   54    24    67 1
   55    24    68 1
   56    24    69 1
   57    25    26 2
   58    25    27 1
   59    27    28 1
   60    28    70 1
   61    28    71 1
   62    28    72 1
   63    29    30 2
   64    29    31 2
   65    29    32 1
   66    32    33 2
   67    33    34 1
   68    33    73 1
   69    34    35 2
   70    34    74 1
   71    35    36 1
   72    35    38 1
   73    36    37 1
   74    37    75 1
   75    37    76 1
   76    37    77 1
   77    38    39 2
   78    38    78 1
   79    39    32 1
   80    39    79 1
