@<TRIPOS>MOLECULE
4gid_ligand
95  97  1  0  0
SMALL
GASTEIGER
@<TRIPOS>ATOM
    1 C1         5.318    -0.539    10.097 C.3        1 ****   -0.0613
    2 C2         5.283    -1.457     8.861 C.3        1 ****   -0.0315
    3 C3         6.559    -2.319     8.826 C.3        1 ****   -0.0613
    4 C4         5.204    -0.603     7.580 C.3        1 ****    0.0134
    5 N1         5.184    -1.503     6.406 N.am       1 ****   -0.3118
    6 C5         5.227    -0.971     5.060 C.2        1 ****    0.2526
    7 O1         5.217     0.311     4.871 O.2        1 ****   -0.2732
    8 C6         5.269    -1.910     3.876 C.3        1 ****    0.1487
    9 N2         5.033    -1.145     2.586 N.4        1 ****    0.1346
   10 C7         5.087    -2.152     1.448 C.3        1 ****    0.0517
   11 C8         4.995    -1.447     0.077 C.3        1 ****    0.0577
   12 C9         6.179    -0.468    -0.122 C.3        1 ****   -0.0060
   13 C10        7.512    -1.191    -0.200 C.ar       1 ****   -0.0461
   14 C11        7.571    -2.535    -0.548 C.ar       1 ****   -0.0590
   15 C12        8.804    -3.153    -0.725 C.ar       1 ****   -0.0620
   16 C13        9.976    -2.428    -0.553 C.ar       1 ****   -0.0623
   17 C14        9.917    -1.083    -0.205 C.ar       1 ****   -0.0620
   18 C15        8.685    -0.465    -0.029 C.ar       1 ****   -0.0590
   19 N3         3.718    -0.703     0.006 N.am       1 ****   -0.3047
   20 C16        2.467    -1.423    -0.000 C.2        1 ****    0.2433
   21 O2         2.461    -2.720    -0.009 O.2        1 ****   -0.2720
   22 C17        1.203    -0.693    -0.000 C.ar       1 ****    0.0392
   23 C18        1.204     0.697     0.000 C.ar       1 ****   -0.0338
   24 C19        0.000     1.392    -0.000 C.ar       1 ****   -0.0051
   25 C20       -1.203     0.697    -0.000 C.ar       1 ****   -0.0338
   26 C21       -1.203    -0.693    -0.000 C.ar       1 ****    0.0392
   27 C22        0.000    -1.388    -0.000 C.ar       1 ****   -0.0370
   28 C23       -2.470    -1.424    -0.000 C.2        1 ****    0.2434
   29 O3        -2.457    -2.719    -0.034 O.2        1 ****   -0.2719
   30 N4        -3.736    -0.705     0.022 N.am       1 ****   -0.3048
   31 C24       -5.024    -0.845     0.912 C.3        1 ****    0.0451
   32 C25       -5.138    -2.380     1.247 C.3        1 ****   -0.0425
   33 C26       -6.206    -0.538    -0.044 C.ar       1 ****   -0.0280
   34 C27       -6.021     0.830    -0.196 C.ar       1 ****   -0.0572
   35 C28       -7.121     1.679    -0.246 C.ar       1 ****   -0.0620
   36 C29       -8.405     1.159    -0.145 C.ar       1 ****   -0.0623
   37 C30       -8.590    -0.211     0.007 C.ar       1 ****   -0.0620
   38 C31       -7.491    -1.059     0.057 C.ar       1 ****   -0.0572
   39 N5         0.001     2.848     0.001 N.am       1 ****   -0.3336
   40 C32       -1.291     3.575    -0.040 C.3        1 ****   -0.0325
   41 S1         1.486     3.759     0.011 S.O2       1 ****    1.3659
   42 O4         1.150     5.277    -0.093 O.2        1 ****   -0.5710
   43 O5         2.365     3.341    -1.208 O.2        1 ****   -0.5710
   44 C33        2.393     3.472     1.534 C.3        1 ****   -0.0377
   45 C34        6.655    -1.951     4.650 C.3        1 ****    0.0941
   46 C35        6.939    -3.479     4.999 C.3        1 ****   -0.0347
   47 O6         7.717    -1.550     3.633 O.3        1 ****   -0.3889
   48 H1         6.192     0.109    10.045 H          1 ****    0.0233
   49 H2         5.370    -1.147    11.000 H          1 ****    0.0233
   50 H3         4.415     0.071    10.122 H          1 ****    0.0233
   51 H4         4.408    -2.104     8.917 H          1 ****    0.0313
   52 H5         6.612    -2.928     9.729 H          1 ****    0.0233
   53 H6         7.435    -1.672     8.773 H          1 ****    0.0233
   54 H7         6.536    -2.969     7.952 H          1 ****    0.0233
   55 H8         4.293    -0.004     7.596 H          1 ****    0.0469
   56 H9         6.074     0.052     7.522 H          1 ****    0.0469
   57 H10        5.136    -2.562     6.554 H          1 ****    0.1494
   58 H11        4.489    -2.658     4.022 H          1 ****    0.0850
   59 H12        4.070    -0.679     2.612 H          1 ****    0.2284
   60 H13        5.801    -0.411     2.455 H          1 ****    0.2284
   61 H14        4.257    -2.852     1.548 H          1 ****    0.0700
   62 H15        6.023    -2.708     1.504 H          1 ****    0.0700
   63 H16        5.038    -2.198    -0.712 H          1 ****    0.0544
   64 H17        6.204     0.236     0.709 H          1 ****    0.0336
   65 H18        6.025     0.095    -1.043 H          1 ****    0.0336
   66 H19        6.652    -3.104    -0.683 H          1 ****    0.0625
   67 H20        8.851    -4.208    -0.998 H          1 ****    0.0622
   68 H21       10.942    -2.913    -0.692 H          1 ****    0.0622
   69 H22       10.837    -0.514    -0.071 H          1 ****    0.0622
   70 H23        8.639     0.590     0.243 H          1 ****    0.0625
   71 H24        3.722     0.366    -0.040 H          1 ****    0.1501
   72 H25        2.148     1.242     0.000 H          1 ****    0.0646
   73 H26       -2.147     1.242    -0.000 H          1 ****    0.0646
   74 H27       -0.000    -2.478    -0.000 H          1 ****    0.0639
   75 H28       -3.744     0.365     0.045 H          1 ****    0.1503
   76 H29       -5.027    -0.229     1.811 H          1 ****    0.0552
   77 H30       -5.083    -1.766     2.146 H          1 ****    0.0252
   78 H31       -4.303    -3.080     1.243 H          1 ****    0.0252
   79 H32       -6.082    -2.924     1.224 H          1 ****    0.0252
   80 H33       -5.013     1.238    -0.275 H          1 ****    0.0626
   81 H34       -6.976     2.753    -0.365 H          1 ****    0.0622
   82 H35       -9.267     1.824    -0.184 H          1 ****    0.0622
   83 H36       -9.598    -0.619     0.086 H          1 ****    0.0622
   84 H37       -7.636    -2.133     0.175 H          1 ****    0.0626
   85 H38       -1.852     3.208     0.820 H          1 ****    0.0371
   86 H39       -1.797     3.209    -0.934 H          1 ****    0.0371
   87 H40       -1.188     4.660    -0.036 H          1 ****    0.0371
   88 H41        2.617     2.408     1.619 H          1 ****    0.0121
   89 H42        1.774     3.775     2.378 H          1 ****    0.0121
   90 H43        3.320     4.046     1.530 H          1 ****    0.0121
   91 H44        6.658    -1.306     5.529 H          1 ****    0.0643
   92 H45        6.160    -4.238     5.071 H          1 ****    0.0258
   93 H46        6.907    -2.854     5.892 H          1 ****    0.0258
   94 H47        7.916    -3.952     4.907 H          1 ****    0.0258
   95 H48        7.702    -0.919     4.473 H          1 ****    0.2156
@<TRIPOS>BOND
    1     1     2 1
    2     1    48 1
    3     1    49 1
    4     1    50 1
    5     2     3 1
    6     2     4 1
    7     2    51 1
    8     3    52 1
    9     3    53 1
   10     3    54 1
   11     4     5 1
   12     4    55 1
   13     4    56 1
   14     5     6 1
   15     5    57 1
   16     6     7 2
   17     6     8 1
   18     8     9 1
   19     8    45 1
   20     8    58 1
   21     9    10 1
   22     9    59 1
   23     9    60 1
   24    10    11 1
   25    10    61 1
   26    10    62 1
   27    11    12 1
   28    11    19 1
   29    11    63 1
   30    12    13 1
   31    12    64 1
   32    12    65 1
   33    13    14 2
   34    14    15 1
   35    14    66 1
   36    15    16 2
   37    15    67 1
   38    16    17 1
   39    16    68 1
   40    17    18 2
   41    17    69 1
   42    18    13 1
   43    18    70 1
   44    19    20 1
   45    19    71 1
   46    20    21 2
   47    20    22 1
   48    22    23 2
   49    23    24 1
   50    23    72 1
   51    24    25 2
   52    24    39 1
   53    25    26 1
   54    25    73 1
   55    26    27 2
   56    26    28 1
   57    27    22 1
   58    27    74 1
   59    28    29 2
   60    28    30 1
   61    30    31 1
   62    30    75 1
   63    31    32 1
   64    31    33 1
   65    31    76 1
   66    32    77 1
   67    32    78 1
   68    32    79 1
   69    33    34 2
   70    34    35 1
   71    34    80 1
   72    35    36 2
   73    35    81 1
   74    36    37 1
   75    36    82 1
   76    37    38 2
   77    37    83 1
   78    38    33 1
   79    38    84 1
   80    39    40 1
   81    39    41 1
   82    40    85 1
   83    40    86 1
   84    40    87 1
   85    41    42 2
   86    41    43 2
   87    41    44 1
   88    44    88 1
   89    44    89 1
   90    44    90 1
   91    45    46 1
   92    45    47 1
   93    45    91 1
   94    46    92 1
   95    46    93 1
   96    46    94 1
   97    47    95 1
