@<TRIPOS>MOLECULE
ZINC000000001281
  29   30    0    0    0
SMALL
USER_CHARGES
@<TRIPOS>ATOM
    1 O1        0.2053    -0.2654     0.3267 O.co2  1 <0>      -0.6900
    2 C2        0.3027     0.9499     0.3197 C.2    1 <0>       0.5000
    3 O3        1.3965     1.4745     0.4416 O.co2  1 <0>      -0.7000
    4 C4       -0.9281     1.8035     0.1543 C.3    1 <0>      -0.1600
    5 C5       -2.1395     0.9174     0.0185 C.ar   1 <0>      -0.0200
    6 C6       -2.6063     0.5721    -1.2342 C.ar   1 <0>      -0.1100
    7 C7       -3.7177    -0.2416    -1.3598 C.ar   1 <0>      -0.1200
    8 C8       -4.3654    -0.7116    -0.2322 C.ar   1 <0>      -0.1400
    9 C9       -3.9041    -0.3698     1.0240 C.ar   1 <0>      -0.1200
   10 C10      -2.7845     0.4422     1.1538 C.ar   1 <0>       0.1600
   11 N11      -2.3151     0.7899     2.4228 N.pl3  1 <0>      -0.6800
   12 C12      -2.4162     2.1118     2.8677 C.ar   1 <0>       0.2400
   13 C13      -3.4189     2.9381     2.3746 C.ar   1 <0>      -0.0900
   14 Cl14     -4.5486     2.3307     1.2047 Cl     1 <0>      -0.0500
   15 C15      -3.5159     4.2440     2.8170 C.ar   1 <0>      -0.0700
   16 C16      -2.6165     4.7287     3.7488 C.ar   1 <0>      -0.1500
   17 C17      -1.6171     3.9097     4.2415 C.ar   1 <0>      -0.0700
   18 C18      -1.5176     2.6009     3.8084 C.ar   1 <0>      -0.0900
   19 Cl19     -0.2626     1.5736     4.4276 Cl     1 <0>      -0.0500
   20 H20      -1.0443     2.4465     1.0268 H      1 <0>       0.0700
   21 H21      -0.8261     2.4189    -0.7395 H      1 <0>       0.0600
   22 H22      -2.1032     0.9380    -2.1170 H      1 <0>       0.1100
   23 H23      -4.0808    -0.5101    -2.3408 H      1 <0>       0.1100
   24 H24      -5.2332    -1.3464    -0.3338 H      1 <0>       0.1100
   25 H25      -4.4107    -0.7370     1.9044 H      1 <0>       0.1100
   26 H26      -1.9192     0.1144     2.9954 H      1 <0>       0.4100
   27 H27      -4.2949     4.8867     2.4342 H      1 <0>       0.1300
   28 H28      -2.6945     5.7496     4.0924 H      1 <0>       0.1300
   29 H29      -0.9160     4.2920     4.9686 H      1 <0>       0.1400
@<TRIPOS>BOND
   1    1    2 ar
   2    2    3 ar
   3    2    4 1
   4    4    5 1
   5    4   20 1
   6    4   21 1
   7    5   10 ar
   8    5    6 ar
   9    6    7 ar
  10    6   22 1
  11    7    8 ar
  12    7   23 1
  13    8    9 ar
  14    8   24 1
  15    9   10 ar
  16    9   25 1
  17   10   11 1
  18   11   12 1
  19   11   26 1
  20   12   18 ar
  21   12   13 ar
  22   13   14 1
  23   13   15 ar
  24   15   16 ar
  25   15   27 1
  26   16   17 ar
  27   16   28 1
  28   17   18 ar
  29   17   29 1
  30   18   19 1
