@<TRIPOS>MOLECULE
ZINC000000002063
33    34    1     0     0
SMALL
USER_CHARGES
@<TRIPOS>ATOM
1      C1     -1.5517    1.3252    1.5958 C.3      1 ZINC000000002063   -0.1400
2      C2     -1.4286   -0.1668    1.4231 C.2      1 ZINC000000002063    0.4700
3      O3     -1.5593   -0.8981    2.3760 O.2      1 ZINC000000002063   -0.5100
4      O4     -1.1735   -0.6836    0.2100 O.3      1 ZINC000000002063   -0.2800
5      C5     -0.9700   -2.0236    0.1415 C.ar     1 ZINC000000002063    0.1400
6      C6      0.3172   -2.5357    0.1918 C.ar     1 ZINC000000002063   -0.1400
7      C7      0.5229   -3.8999    0.1225 C.ar     1 ZINC000000002063   -0.0800
8      C8     -0.5515   -4.7655    0.0025 C.ar     1 ZINC000000002063   -0.1300
9      C9     -1.8382   -4.2738   -0.0494 C.ar     1 ZINC000000002063   -0.0400
10     C10    -2.0610   -2.8966    0.0255 C.ar     1 ZINC000000002063   -0.1000
11     C11    -3.4345   -2.3637   -0.0290 C.2      1 ZINC000000002063    0.5400
12     O12    -3.6243   -1.1653    0.0365 O.2      1 ZINC000000002063   -0.5000
13     O13    -4.4799   -3.2059   -0.1513 O.3      1 ZINC000000002063   -0.2700
14     C14    -5.7064   -2.6470   -0.3050 C.ar     1 ZINC000000002063    0.1100
15     C15    -6.5392   -2.4823    0.7911 C.ar     1 ZINC000000002063   -0.1400
16     C16    -7.7874   -1.9126    0.6333 C.ar     1 ZINC000000002063   -0.1200
17     C17    -8.2180   -1.5022   -0.6179 C.ar     1 ZINC000000002063   -0.1300
18     C18    -7.4046   -1.6581   -1.7191 C.ar     1 ZINC000000002063   -0.0800
19     C19    -6.1360   -2.2275   -1.5733 C.ar     1 ZINC000000002063   -0.1400
20     C20    -5.2613   -2.3973   -2.7452 C.2      1 ZINC000000002063    0.5200
21     O21    -5.6438   -2.0399   -3.8509 O.co2    1 ZINC000000002063   -0.6800
22     O22    -4.1520   -2.8959   -2.6133 O.co2    1 ZINC000000002063   -0.6700
23     H23    -1.7583    1.5541    2.6413 H        1 ZINC000000002063    0.1000
24     H24    -0.6192    1.8038    1.2965 H        1 ZINC000000002063    0.1000
25     H25    -2.3666    1.6969    0.9746 H        1 ZINC000000002063    0.1100
26     H26     1.1603   -1.8673    0.2849 H        1 ZINC000000002063    0.1400
27     H27     1.5278   -4.2939    0.1617 H        1 ZINC000000002063    0.1400
28     H28    -0.3805   -5.8305   -0.0509 H        1 ZINC000000002063    0.1400
29     H29    -2.6731   -4.9524   -0.1437 H        1 ZINC000000002063    0.1500
30     H30    -6.2115   -2.8002    1.7699 H        1 ZINC000000002063    0.1200
31     H31    -8.4321   -1.7867    1.4906 H        1 ZINC000000002063    0.1200
32     H32    -9.1960   -1.0582   -0.7307 H        1 ZINC000000002063    0.1200
33     H33    -7.7447   -1.3369   -2.6925 H        1 ZINC000000002063    0.1300
@<TRIPOS>BOND
1     1     2     1
2     1     23    1
3     1     24    1
4     1     25    1
5     2     3     2
6     2     4     1
7     4     5     1
8     5     10    ar
9     5     6     ar
10    6     7     ar
11    6     26    1
12    7     8     ar
13    7     27    1
14    8     9     ar
15    8     28    1
16    9     10    ar
17    9     29    1
18    10    11    1
19    11    12    2
20    11    13    1
21    13    14    1
22    14    19    ar
23    14    15    ar
24    15    16    ar
25    15    30    1
26    16    17    ar
27    16    31    1
28    17    18    ar
29    17    32    1
30    18    19    ar
31    18    33    1
32    19    20    1
33    20    21    ar
34    20    22    ar

