@<TRIPOS>MOLECULE
ZINC000000000323
  30   31    0    0    0
SMALL
USER_CHARGES
@<TRIPOS>ATOM
    1 C1       -0.0187     1.5258     0.0104 C.3    1 <0>      -0.1200
    2 C2        0.0021    -0.0041     0.0020 C.3    1 <0>      -0.1400
    3 H3        0.5123    -0.3556    -0.8948 H      1 <0>       0.0700
    4 C4       -1.4117    -0.5257     0.0127 C.2    1 <0>       0.5000
    5 O5       -2.1751    -0.2365    -0.8929 O.co2  1 <0>      -0.6900
    6 O6       -1.7922    -1.2369     0.9270 O.co2  1 <0>      -0.6800
    7 C7        0.7309    -0.5033     1.2229 C.ar   1 <0>       0.0100
    8 C8        0.2602    -0.1854     2.4840 C.ar   1 <0>      -0.0900
    9 C9        0.9231    -0.6389     3.6067 C.ar   1 <0>      -0.0800
   10 C10       2.0688    -1.4191     3.4689 C.ar   1 <0>      -0.1100
   11 C11       2.7850    -1.9096     4.6721 C.ar   1 <0>      -0.0300
   12 C12       3.1177    -1.0258     5.6968 C.ar   1 <0>      -0.1100
   13 C13       3.7840    -1.4876     6.8137 C.ar   1 <0>      -0.1200
   14 C14       4.1219    -2.8249     6.9170 C.ar   1 <0>      -0.1300
   15 C15       3.7946    -3.7066     5.9027 C.ar   1 <0>      -0.1200
   16 C16       3.1225    -3.2570     4.7842 C.ar   1 <0>      -0.1000
   17 C17       2.5400    -1.7379     2.1944 C.ar   1 <0>       0.1000
   18 F18       3.6505    -2.4941     2.0525 F      1 <0>      -0.1400
   19 C19       1.8645    -1.2821     1.0777 C.ar   1 <0>      -0.1600
   20 H20       1.0039     1.9031     0.0027 H      1 <0>       0.0400
   21 H21      -0.5459     1.8868    -0.8726 H      1 <0>       0.0600
   22 H22      -0.5289     1.8773     0.9072 H      1 <0>       0.0500
   23 H23      -0.6281     0.4196     2.5907 H      1 <0>       0.1300
   24 H24       0.5542    -0.3888     4.5905 H      1 <0>       0.1300
   25 H25       2.8549     0.0187     5.6169 H      1 <0>       0.1200
   26 H26       4.0423    -0.8034     7.6085 H      1 <0>       0.1200
   27 H27       4.6436    -3.1819     7.7926 H      1 <0>       0.1200
   28 H28       4.0612    -4.7496     5.9883 H      1 <0>       0.1200
   29 H29       2.8670    -3.9463     3.9930 H      1 <0>       0.1200
   30 H30       2.2273    -1.5276     0.0906 H      1 <0>       0.1300
@<TRIPOS>BOND
   1    1    2 1
   2    1   20 1
   3    1   21 1
   4    1   22 1
   5    2    3 1
   6    2    4 1
   7    2    7 1
   8    4    5 ar
   9    4    6 ar
  10    7   19 ar
  11    7    8 ar
  12    8    9 ar
  13    8   23 1
  14    9   10 ar
  15    9   24 1
  16   10   11 1
  17   10   17 ar
  18   11   16 ar
  19   11   12 ar
  20   12   13 ar
  21   12   25 1
  22   13   14 ar
  23   13   26 1
  24   14   15 ar
  25   14   27 1
  26   15   16 ar
  27   15   28 1
  28   16   29 1
  29   17   18 1
  30   17   19 ar
  31   19   30 1
