@<TRIPOS>MOLECULE
ZINC000000896711
  37   38    0    0    0
SMALL
USER_CHARGES
@<TRIPOS>ATOM
    1 C1       -0.0176     1.4478     0.0100 C.3    1 <0>       0.0300
    2 O2        0.0021    -0.0041     0.0020 O.3    1 <0>      -0.3900
    3 C3       -1.1855    -0.6297     0.0100 C.2    1 <0>       0.4400
    4 O4       -2.2076     0.0145     0.0232 O.2    1 <0>      -0.4400
    5 C5       -1.2439    -2.1355     0.0025 C.3    1 <0>      -0.0400
    6 H6       -0.7531    -2.5137    -0.8943 H      1 <0>       0.1400
    7 C7       -2.6831    -2.5824     0.0138 C.ar   1 <0>      -0.1000
    8 C8       -3.5122    -2.2166     1.0577 C.ar   1 <0>      -0.0900
    9 C9       -4.8323    -2.6265     1.0681 C.ar   1 <0>      -0.1100
   10 C10      -5.3235    -3.4019     0.0344 C.ar   1 <0>      -0.0900
   11 C11      -4.4946    -3.7670    -1.0099 C.ar   1 <0>      -0.1100
   12 C12      -3.1756    -3.3535    -1.0225 C.ar   1 <0>      -0.0900
   13 C13      -0.5311    -2.6798     1.2421 C.3    1 <0>       0.0400
   14 H14      -1.0223    -2.3014     2.1385 H      1 <0>       0.1400
   15 C15      -0.5921    -4.2087     1.2346 C.3    1 <0>      -0.1400
   16 C16       0.1222    -4.7487     2.4770 C.3    1 <0>      -0.1400
   17 C17       1.5613    -4.2254     2.4942 C.3    1 <0>      -0.1500
   18 C18       1.5425    -2.6958     2.4549 C.3    1 <0>      -0.0100
   19 N19       0.8702    -2.2430     1.2312 N.4    1 <0>      -0.5100
   20 H20       1.3378    -2.6342     0.4273 H      1 <0>       0.4300
   21 H21       0.9054    -1.2358     1.1824 H      1 <0>       0.4300
   22 H22       1.0050     1.8251     0.0023 H      1 <0>       0.1200
   23 H23      -0.5448     1.8089    -0.8731 H      1 <0>       0.0800
   24 H24      -0.5278     1.7993     0.9068 H      1 <0>       0.0700
   25 H25      -3.1285    -1.6108     1.8652 H      1 <0>       0.1200
   26 H26      -5.4799    -2.3413     1.8840 H      1 <0>       0.1300
   27 H27      -6.3547    -3.7228     0.0429 H      1 <0>       0.1300
   28 H28      -4.8782    -4.3731    -1.8173 H      1 <0>       0.1300
   29 H29      -2.5280    -3.6387    -1.8383 H      1 <0>       0.1300
   30 H30      -1.6332    -4.5315     1.2442 H      1 <0>       0.1200
   31 H31      -0.1010    -4.5882     0.3386 H      1 <0>       0.0900
   32 H32      -0.3992    -4.4111     3.3727 H      1 <0>       0.0800
   33 H33       0.1309    -5.8383     2.4477 H      1 <0>       0.1000
   34 H34       2.0594    -4.5600     3.4041 H      1 <0>       0.1100
   35 H35       2.0971    -4.6052     1.6243 H      1 <0>       0.0900
   36 H36       1.0067    -2.3170     3.3253 H      1 <0>       0.1300
   37 H37       2.5655    -2.3199     2.4673 H      1 <0>       0.1400
@<TRIPOS>BOND
   1    1    2 1
   2    1   22 1
   3    1   23 1
   4    1   24 1
   5    2    3 1
   6    3    4 2
   7    3    5 1
   8    5    6 1
   9    5    7 1
  10    5   13 1
  11    7   12 ar
  12    7    8 ar
  13    8    9 ar
  14    8   25 1
  15    9   10 ar
  16    9   26 1
  17   10   11 ar
  18   10   27 1
  19   11   12 ar
  20   11   28 1
  21   12   29 1
  22   13   14 1
  23   13   19 1
  24   13   15 1
  25   15   16 1
  26   15   30 1
  27   15   31 1
  28   16   17 1
  29   16   32 1
  30   16   33 1
  31   17   18 1
  32   17   34 1
  33   17   35 1
  34   18   19 1
  35   18   36 1
  36   18   37 1
  37   19   20 1
  38   19   21 1
