@<TRIPOS>MOLECULE
ZINC000000000433
36    37    1     0     0
SMALL
USER_CHARGES
@<TRIPOS>ATOM
1      C1     -0.2646    1.4400   -0.1519 C.3      1 ZINC000000000433   -0.1100
2      C2     -0.2277   -0.0647   -0.0776 C.ar     1 ZINC000000000433   -0.0900
3      C3     -0.4162   -0.8212   -1.2213 C.ar     1 ZINC000000000433    0.1500
4      O4     -0.6344   -0.2066   -2.4137 O.3      1 ZINC000000000433   -0.2700
5      C5     -0.9411   -1.0454   -3.5293 C.3      1 ZINC000000000433    0.0100
6      H6     -1.5344   -1.8954   -3.1925 H        1 ZINC000000000433    0.0700
7      C7      0.3582   -1.5487   -4.1613 C.3      1 ZINC000000000433   -0.1600
8      C8     -1.7239   -0.2588   -4.5489 C.2      1 ZINC000000000433    0.5100
9      O9     -1.9157    0.9337   -4.3827 O.co2    1 ZINC000000000433   -0.6700
10     O10    -2.1653   -0.8150   -5.5401 O.co2    1 ZINC000000000433   -0.6800
11     C11    -0.3819   -2.2078   -1.1512 C.ar     1 ZINC000000000433   -0.2000
12     C12    -0.1599   -2.8390    0.0589 C.ar     1 ZINC000000000433   -0.0800
13     C13     0.0293   -2.0952    1.2055 C.ar     1 ZINC000000000433   -0.1300
14     C14     0.0024   -0.7002    1.1442 C.ar     1 ZINC000000000433   -0.1200
15     C15     0.2051    0.1001    2.3698 C.2      1 ZINC000000000433    0.4600
16     O16    -0.6920    0.2032    3.1836 O.2      1 ZINC000000000433   -0.4400
17     C17     1.4975    0.7745    2.6060 C.ar     1 ZINC000000000433   -0.1600
18     C18     2.4934    0.7452    1.6264 C.ar     1 ZINC000000000433   -0.0500
19     C19     3.6977    1.3767    1.8530 C.ar     1 ZINC000000000433   -0.1200
20     C20     3.9215    2.0394    3.0490 C.ar     1 ZINC000000000433   -0.0100
21     Cl21    5.4407    2.8322    3.3266 Cl       1 ZINC000000000433   -0.0600
22     C22     2.9378    2.0725    4.0241 C.ar     1 ZINC000000000433   -0.1300
23     C23     1.7273    1.4495    3.8076 C.ar     1 ZINC000000000433   -0.0500
24     H24     0.7497    1.8233   -0.2630 H        1 ZINC000000000433    0.0700
25     H25    -0.8648    1.7469   -1.0084 H        1 ZINC000000000433    0.0900
26     H26    -0.7054    1.8382    0.7620 H        1 ZINC000000000433    0.0600
27     H27     0.9244   -2.1176   -3.4238 H        1 ZINC000000000433    0.0500
28     H28     0.1243   -2.1885   -5.0122 H        1 ZINC000000000433    0.0700
29     H29     0.9516   -0.6987   -4.4981 H        1 ZINC000000000433    0.0600
30     H30    -0.5297   -2.7954   -2.0452 H        1 ZINC000000000433    0.1300
31     H31    -0.1348   -3.9176    0.1067 H        1 ZINC000000000433    0.1300
32     H32     0.2022   -2.5915    2.1490 H        1 ZINC000000000433    0.1200
33     H33     2.3203    0.2286    0.6939 H        1 ZINC000000000433    0.1500
34     H34     4.4685    1.3545    1.0969 H        1 ZINC000000000433    0.1400
35     H35     3.1184    2.5908    4.9542 H        1 ZINC000000000433    0.1400
36     H36     0.9613    1.4760    4.5685 H        1 ZINC000000000433    0.1400
@<TRIPOS>BOND
1     1     2     1
2     1     24    1
3     1     25    1
4     1     26    1
5     2     14    ar
6     2     3     ar
7     3     4     1
8     3     11    ar
9     4     5     1
10    5     6     1
11    5     7     1
12    5     8     1
13    7     27    1
14    7     28    1
15    7     29    1
16    8     9     ar
17    8     10    ar
18    11    12    ar
19    11    30    1
20    12    13    ar
21    12    31    1
22    13    14    ar
23    13    32    1
24    14    15    1
25    15    16    2
26    15    17    1
27    17    23    ar
28    17    18    ar
29    18    19    ar
30    18    33    1
31    19    20    ar
32    19    34    1
33    20    21    1
34    20    22    ar
35    22    23    ar
36    22    35    1
37    23    36    1
