@<TRIPOS>MOLECULE
ZINC000000057060
  33   34    0    0    0
SMALL
USER_CHARGES
@<TRIPOS>ATOM
    1 C1       -0.0173     1.4248     0.0099 C.3    1 <0>       0.0300
    2 O2        0.0021    -0.0041     0.0020 O.3    1 <0>      -0.3200
    3 C3       -1.2011    -0.6379     0.0101 C.ar   1 <0>       0.1000
    4 C4       -2.3771     0.1072     0.0195 C.ar   1 <0>      -0.1800
    5 C5       -3.6040    -0.5186     0.0273 C.ar   1 <0>      -0.0900
    6 C6       -3.6760    -1.9073     0.0258 C.ar   1 <0>       0.0600
    7 N7       -4.7263    -2.8010     0.0320 N.pl3  1 <0>      -0.5900
    8 C8       -4.2463    -4.0820     0.0268 C.2    1 <0>       0.0700
    9 C9       -2.9040    -4.0680     0.0173 C.2    1 <0>      -0.1800
   10 C10      -1.9953    -5.2702     0.0084 C.3    1 <0>      -0.0500
   11 C11      -1.5768    -5.6038     1.4417 C.3    1 <0>       0.1200
   12 N12      -0.6935    -6.7725     1.4331 N.am   1 <0>      -0.7300
   13 C13      -0.1974    -7.2508     2.5913 C.2    1 <0>       0.5100
   14 C14       0.7113    -8.4531     2.5824 C.3    1 <0>      -0.1700
   15 O15      -0.4822    -6.7138     3.6407 O.2    1 <0>      -0.5500
   16 C16      -2.4897    -2.6629     0.0163 C.ar   1 <0>      -0.0600
   17 C17      -1.2514    -2.0177     0.0032 C.ar   1 <0>      -0.1100
   18 H18       1.0053     1.8021     0.0021 H      1 <0>       0.1000
   19 H19      -0.5445     1.7859    -0.8732 H      1 <0>       0.0500
   20 H20      -0.5275     1.7763     0.9067 H      1 <0>       0.0500
   21 H21      -2.3269     1.1860     0.0211 H      1 <0>       0.1300
   22 H22      -4.5100     0.0692     0.0350 H      1 <0>       0.1200
   23 H23      -5.6652    -2.5575     0.0393 H      1 <0>       0.4200
   24 H24      -4.8570    -4.9728     0.0298 H      1 <0>       0.1700
   25 H25      -2.5225    -6.1209    -0.4235 H      1 <0>       0.0800
   26 H26      -1.1091    -5.0514    -0.5873 H      1 <0>       0.0800
   27 H27      -1.0497    -4.7532     1.8736 H      1 <0>       0.0700
   28 H28      -2.4631    -5.8226     2.0374 H      1 <0>       0.0700
   29 H29      -0.4657    -7.2021     0.5937 H      1 <0>       0.4000
   30 H30       1.7464    -8.1254     2.4857 H      1 <0>       0.0900
   31 H31       0.5909    -9.0064     3.5137 H      1 <0>       0.0900
   32 H32       0.4539    -9.0968     1.7413 H      1 <0>       0.0800
   33 H33      -0.3384    -2.5946    -0.0096 H      1 <0>       0.1300
@<TRIPOS>BOND
   1    1    2 1
   2    1   18 1
   3    1   19 1
   4    1   20 1
   5    2    3 1
   6    3   17 ar
   7    3    4 ar
   8    4    5 ar
   9    4   21 1
  10    5    6 ar
  11    5   22 1
  12    6   16 ar
  13    6    7 1
  14    7    8 1
  15    7   23 1
  16    8    9 2
  17    8   24 1
  18    9   10 1
  19    9   16 1
  20   10   11 1
  21   10   25 1
  22   10   26 1
  23   11   12 1
  24   11   27 1
  25   11   28 1
  26   12   13 am
  27   12   29 1
  28   13   14 1
  29   13   15 2
  30   14   30 1
  31   14   31 1
  32   14   32 1
  33   16   17 ar
  34   17   33 1
