@<TRIPOS>MOLECULE
ZINC000000001758
42    43    1     0     0
SMALL
USER_CHARGES
@<TRIPOS>ATOM
1      C1     -0.2952    0.8287   -0.1486 C.3      1 ZINC000000001758    0.0300
2      O2     -0.0039   -0.4469   -0.7230 O.3      1 ZINC000000001758   -0.3300
3      C3      0.6660   -0.4528   -1.9031 C.ar     1 ZINC000000001758    0.1500
4      C4     -0.0358   -0.3343   -3.1006 C.ar     1 ZINC000000001758   -0.1000
5      C5     -1.5367   -0.2004   -3.0835 C.3      1 ZINC000000001758   -0.1100
6      C6      0.6381   -0.3389   -4.2950 C.ar     1 ZINC000000001758   -0.0800
7      C7      2.0327   -0.4628   -4.3215 C.ar     1 ZINC000000001758   -0.2300
8      C8      2.4661   -0.4365   -5.7243 C.2      1 ZINC000000001758    0.5300
9      O9      3.6200   -0.5232   -6.0962 O.2      1 ZINC000000001758   -0.4400
10     O10     1.4049   -0.3035   -6.5383 O.3      1 ZINC000000001758   -0.3200
11     C11     0.1962   -0.2325   -5.7332 C.3      1 ZINC000000001758    0.1000
12     C12     2.7375   -0.5825   -3.1134 C.ar     1 ZINC000000001758    0.2100
13     O13     4.0885   -0.7034   -3.1220 O.3      1 ZINC000000001758   -0.4800
14     C14     2.0483   -0.5710   -1.9131 C.ar     1 ZINC000000001758   -0.1100
15     C15     2.8007   -0.6987   -0.6136 C.3      1 ZINC000000001758   -0.0500
16     C16     3.3086    0.6560   -0.1920 C.2      1 ZINC000000001758   -0.2000
17     C17     4.5800    0.8250    0.0745 C.2      1 ZINC000000001758   -0.0900
18     C18     5.5093   -0.3612    0.0974 C.3      1 ZINC000000001758   -0.1200
19     C19     5.1134    2.2056    0.3582 C.3      1 ZINC000000001758   -0.0600
20     C20     5.1402    2.4414    1.8697 C.3      1 ZINC000000001758   -0.1700
21     C21     5.6735    3.8220    2.1534 C.2      1 ZINC000000001758    0.4900
22     O22     6.0018    4.5499    1.2321 O.co2    1 ZINC000000001758   -0.7000
23     O23     5.7768    4.2110    3.3043 O.co2    1 ZINC000000001758   -0.7100
24     H24     0.6358    1.3249    0.1256 H        1 ZINC000000001758    0.0600
25     H25    -0.8325    1.4396   -0.8740 H        1 ZINC000000001758    0.0500
26     H26    -0.9111    0.6947    0.7406 H        1 ZINC000000001758    0.1000
27     H27    -1.8068    0.8543   -3.0320 H        1 ZINC000000001758    0.0700
28     H28    -1.9509   -0.6375   -3.9921 H        1 ZINC000000001758    0.0700
29     H29    -1.9381   -0.7211   -2.2141 H        1 ZINC000000001758    0.0800
30     H30    -0.4689   -1.0593   -5.9826 H        1 ZINC000000001758    0.1200
31     H31    -0.3093    0.7187   -5.9001 H        1 ZINC000000001758    0.1200
32     H32     4.5591    0.1405   -3.0834 H        1 ZINC000000001758    0.4000
33     H33     2.1350   -1.0924    0.1545 H        1 ZINC000000001758    0.0900
34     H34     3.6433   -1.3773   -0.7468 H        1 ZINC000000001758    0.0900
35     H35     2.6244    1.4875   -0.1094 H        1 ZINC000000001758    0.1100
36     H36     5.8506   -0.5749   -0.9155 H        1 ZINC000000001758    0.0700
37     H37     6.3679   -0.1379    0.7306 H        1 ZINC000000001758    0.0600
38     H38     4.9815   -1.2286    0.4936 H        1 ZINC000000001758    0.0600
39     H39     6.1237    2.2940   -0.0413 H        1 ZINC000000001758    0.0700
40     H40     4.4698    2.9479   -0.1139 H        1 ZINC000000001758    0.0600
41     H41     4.1299    2.3530    2.2692 H        1 ZINC000000001758    0.0600
42     H42     5.7838    1.6991    2.3418 H        1 ZINC000000001758    0.0600
@<TRIPOS>BOND
1     1     2     1
2     1     24    1
3     1     25    1
4     1     26    1
5     2     3     1
6     3     14    ar
7     3     4     ar
8     4     5     1
9     4     6     ar
10    5     27    1
11    5     28    1
12    5     29    1
13    6     11    1
14    6     7     ar
15    7     8     1
16    7     12    ar
17    8     9     2
18    8     10    1
19    10    11    1
20    11    30    1
21    11    31    1
22    12    13    1
23    12    14    ar
24    13    32    1
25    14    15    1
26    15    16    1
27    15    33    1
28    15    34    1
29    16    17    2
30    16    35    1
31    17    18    1
32    17    19    1
33    18    36    1
34    18    37    1
35    18    38    1
36    19    20    1
37    19    39    1
38    19    40    1
39    20    21    1
40    20    41    1
41    20    42    1
42    21    22    ar
43    21    23    ar
