@<TRIPOS>MOLECULE
ZINC000000001803
24    25    1     0     0
SMALL
USER_CHARGES
@<TRIPOS>ATOM
1      O1      1.5779    4.1502    0.0169 O.2      1 ZINC000000001803   -0.5200
2      C2      0.7601    3.2521    0.0209 C.2      1 ZINC000000001803    0.7100
3      N3     -0.5617    3.4680    0.0380 N.am     1 ZINC000000001803   -0.7200
4      C4     -1.2625    2.1752    0.0381 C.3      1 ZINC000000001803    0.1000
5      C5     -0.1232    1.1377    0.0180 C.3      1 ZINC000000001803    0.0300
6      N6      1.0984    1.9562    0.0030 N.am     1 ZINC000000001803   -0.4100
7      N7      2.3044    1.4987   -0.0161 N.2      1 ZINC000000001803   -0.1300
8      C8      2.5223    0.1810    0.0801 C.2      1 ZINC000000001803    0.0200
9      C9      3.8129   -0.3007    0.1646 C.2      1 ZINC000000001803    0.1300
10     C10     4.2193   -1.7163    0.2691 C.2      1 ZINC000000001803   -0.1700
11     C11     5.5812   -1.7105    0.3266 C.2      1 ZINC000000001803   -0.0500
12     C12     6.0047   -0.3805    0.2628 C.2      1 ZINC000000001803    0.0200
13     N13     7.4221    0.0637    0.2957 N.pl3    1 ZINC000000001803    0.0300
14     O14     8.3888   -0.8256    0.3916 O.2      1 ZINC000000001803   -0.1600
15     O15     7.7118    1.3467    0.2290 O.2      1 ZINC000000001803   -0.1700
16     O16     4.9501    0.4331    0.1619 O.3      1 ZINC000000001803   -0.1100
17     H17    -0.9889    4.3388    0.0486 H        1 ZINC000000001803    0.4400
18     H18    -1.8636    2.0659    0.9408 H        1 ZINC000000001803    0.1000
19     H19    -1.8849    2.0772   -0.8514 H        1 ZINC000000001803    0.1000
20     H20    -0.1586    0.5132    0.9107 H        1 ZINC000000001803    0.1100
21     H21    -0.1799    0.5246   -0.8814 H        1 ZINC000000001803    0.1100
22     H22     1.6881   -0.5048    0.0916 H        1 ZINC000000001803    0.1700
23     H23     3.5706   -2.5794    0.2952 H        1 ZINC000000001803    0.1900
24     H24     6.2187   -2.5784    0.4077 H        1 ZINC000000001803    0.1900
@<TRIPOS>BOND
1     1     2     2
2     2     6     am
3     2     3     am
4     3     4     1
5     3     17    1
6     4     5     1
7     4     18    1
8     4     19    1
9     5     6     1
10    5     20    1
11    5     21    1
12    6     7     1
13    7     8     2
14    8     9     1
15    8     22    1
16    9     16    1
17    9     10    2
18    10    11    1
19    10    23    1
20    11    12    2
21    11    24    1
22    12    13    1
23    12    16    1
24    13    14    2
25    13    15    2

