@<TRIPOS>MOLECULE
ZINC000000000669
49    51    1     0     0
SMALL
USER_CHARGES
@<TRIPOS>ATOM
1      C1      1.3339    1.9607   -0.4192 C.3      1 ZINC000000000669   -0.1500
2      C2      1.3107    0.4403   -0.5883 C.3      1 ZINC000000000669   -0.1700
3      C3      1.7254   -0.2153    0.7037 C.2      1 ZINC000000000669    0.4000
4      O4      2.0115    0.4668    1.6655 O.2      1 ZINC000000000669   -0.4500
5      C5      1.7832   -1.6776    0.7985 C.ar     1 ZINC000000000669   -0.1300
6      C6      1.4591   -2.4668   -0.3120 C.ar     1 ZINC000000000669   -0.0800
7      C7      1.5135   -3.8377   -0.2154 C.ar     1 ZINC000000000669   -0.0700
8      C8      1.8887   -4.4477    0.9799 C.ar     1 ZINC000000000669   -0.1200
9      S9      1.9353   -6.2057    1.0698 S.3      1 ZINC000000000669    0.0500
10     C10     1.9278   -6.5273    2.8004 C.ar     1 ZINC000000000669   -0.1600
11     C11     1.5903   -7.7953    3.2548 C.ar     1 ZINC000000000669   -0.0500
12     C12     1.5778   -8.0686    4.6101 C.ar     1 ZINC000000000669   -0.1200
13     C13     1.9014   -7.0775    5.5169 C.ar     1 ZINC000000000669   -0.0700
14     C14     2.2382   -5.8128    5.0728 C.ar     1 ZINC000000000669   -0.1600
15     C15     2.2548   -5.5274    3.7116 C.ar     1 ZINC000000000669    0.1800
16     N16     2.6048   -4.2440    3.3008 N.pl3    1 ZINC000000000669   -0.5600
17     C17     3.4378   -3.4428    4.2010 C.3      1 ZINC000000000669    0.0900
18     C18     4.9076   -3.5902    3.8022 C.3      1 ZINC000000000669    0.0000
19     H19     5.0240   -3.3445    2.7466 H        1 ZINC000000000669    0.1400
20     C20     5.3592   -5.0321    4.0429 C.3      1 ZINC000000000669   -0.1800
21     N21     5.7281   -2.6786    4.6106 N.4      1 ZINC000000000669   -0.3800
22     H22     5.6084   -2.8961    5.5886 H        1 ZINC000000000669    0.4300
23     C23     7.1417   -2.8364    4.2434 C.3      1 ZINC000000000669   -0.0500
24     C24     5.3095   -1.2926    4.3624 C.3      1 ZINC000000000669   -0.0600
25     C25     2.2188   -3.6699    2.0919 C.ar     1 ZINC000000000669    0.1700
26     C26     2.1684   -2.2894    1.9986 C.ar     1 ZINC000000000669   -0.1100
27     H27     2.3418    2.2817   -0.1561 H        1 ZINC000000000669    0.0600
28     H28     1.0340    2.4349   -1.3537 H        1 ZINC000000000669    0.0700
29     H29     0.6425    2.2488    0.3727 H        1 ZINC000000000669    0.0600
30     H30     0.3028    0.1193   -0.8515 H        1 ZINC000000000669    0.1000
31     H31     2.0021    0.1522   -1.3802 H        1 ZINC000000000669    0.1000
32     H32     1.1670   -2.0004   -1.2413 H        1 ZINC000000000669    0.1500
33     H33     1.2632   -4.4458   -1.0721 H        1 ZINC000000000669    0.1500
34     H34     1.3369   -8.5707    2.5471 H        1 ZINC000000000669    0.1400
35     H35     1.3150   -9.0560    4.9598 H        1 ZINC000000000669    0.1400
36     H36     1.8907   -7.2915    6.5754 H        1 ZINC000000000669    0.1400
37     H37     2.4896   -5.0421    5.7864 H        1 ZINC000000000669    0.1300
38     H38     3.1455   -2.3951    4.1304 H        1 ZINC000000000669    0.1100
39     H39     3.3029   -3.7893    5.2256 H        1 ZINC000000000669    0.1100
40     H40     6.4062   -5.1371    3.7587 H        1 ZINC000000000669    0.0900
41     H41     5.2428   -5.2779    5.0984 H        1 ZINC000000000669    0.0800
42     H42     4.7503   -5.7085    3.4431 H        1 ZINC000000000669    0.1000
43     H43     7.2711   -2.6014    3.1869 H        1 ZINC000000000669    0.1200
44     H44     7.7506   -2.1600    4.8432 H        1 ZINC000000000669    0.1300
45     H45     7.4524   -3.8648    4.4276 H        1 ZINC000000000669    0.1300
46     H46     5.3447   -1.0885    3.2922 H        1 ZINC000000000669    0.1200
47     H47     4.2920   -1.1497    4.7262 H        1 ZINC000000000669    0.1200
48     H48     5.9811   -0.6111    4.8845 H        1 ZINC000000000669    0.1300
49     H49     2.4222   -1.6823    2.8551 H        1 ZINC000000000669    0.1400
@<TRIPOS>BOND
1     1     2     1
2     1     27    1
3     1     28    1
4     1     29    1
5     2     3     1
6     2     30    1
7     2     31    1
8     3     4     2
9     3     5     1
10    5     26    ar
11    5     6     ar
12    6     7     ar
13    6     32    1
14    7     8     ar
15    7     33    1
16    8     25    ar
17    8     9     1
18    9     10    1
19    10    15    ar
20    10    11    ar
21    11    12    ar
22    11    34    1
23    12    13    ar
24    12    35    1
25    13    14    ar
26    13    36    1
27    14    15    ar
28    14    37    1
29    15    16    1
30    16    17    1
31    16    25    1
32    17    18    1
33    17    38    1
34    17    39    1
35    18    19    1
36    18    20    1
37    18    21    1
38    20    40    1
39    20    41    1
40    20    42    1
41    21    22    1
42    21    23    1
43    21    24    1
44    23    43    1
45    23    44    1
46    23    45    1
47    24    46    1
48    24    47    1
49    24    48    1
50    25    26    ar
51    26    49    1
