@<TRIPOS>MOLECULE
ZINC000000538275
  62   66    0    0    0
SMALL
USER_CHARGES
@<TRIPOS>ATOM
    1 O1        0.0625    -0.0791    -0.0082 O.2    1 <0>      -0.4300
    2 C2        0.0246     1.1383    -0.0191 C.2    1 <0>       0.4700
    3 C3        1.2679     1.9089    -0.0036 C.2    1 <0>      -0.1500
    4 C4        1.8284     2.4010     1.1429 C.2    1 <0>      -0.0800
    5 C5        1.2636     2.2223     2.4929 C.ar   1 <0>      -0.0500
    6 C6        0.8562     0.9551     2.9204 C.ar   1 <0>      -0.0800
    7 C7        0.3290     0.7929     4.1825 C.ar   1 <0>      -0.1400
    8 C8        0.2013     1.8865     5.0303 C.ar   1 <0>       0.1200
    9 O9       -0.3195     1.7219     6.2735 O.3    1 <0>      -0.5000
   10 C10       0.6052     3.1478     4.6098 C.ar   1 <0>      -0.1400
   11 C11       1.1389     3.3185     3.3515 C.ar   1 <0>      -0.0800
   12 S12       3.3080     3.2712     0.7926 S.3    1 <0>       0.1600
   13 C13       3.1740     2.9690    -0.9350 C.ar   1 <0>      -0.1300
   14 C14       4.0188     3.3581    -1.9796 C.ar   1 <0>      -0.1100
   15 C15       3.7247     3.0104    -3.2822 C.ar   1 <0>       0.1300
   16 O16       4.5517     3.3931    -4.2909 O.3    1 <0>      -0.4900
   17 C17       2.5820     2.2678    -3.5635 C.ar   1 <0>      -0.1300
   18 C18       1.7435     1.8792    -2.5495 C.ar   1 <0>      -0.0700
   19 C19       2.0316     2.2202    -1.2126 C.ar   1 <0>      -0.0600
   20 C20      -1.2765     1.8364    -0.0542 C.ar   1 <0>      -0.1800
   21 C21      -1.3222     3.2269    -0.1853 C.ar   1 <0>      -0.0200
   22 C22      -2.5373     3.8740    -0.2175 C.ar   1 <0>      -0.1500
   23 C23      -3.7173     3.1461    -0.1198 C.ar   1 <0>       0.1500
   24 O24      -4.9130     3.7876    -0.1520 O.3    1 <0>      -0.3200
   25 C25      -6.0863     2.9787    -0.0468 C.3    1 <0>       0.0200
   26 C26      -7.3278     3.8713    -0.1017 C.3    1 <0>       0.0000
   27 N27      -7.4134     4.5103    -1.4217 N.4    1 <0>      -0.3800
   28 H28      -6.5539     5.0034    -1.6118 H      1 <0>       0.4300
   29 C29      -8.5330     5.4594    -1.4324 C.3    1 <0>      -0.0100
   30 C30      -8.5770     6.1868    -2.7779 C.3    1 <0>      -0.1500
   31 C31      -8.7638     5.1619    -3.9003 C.3    1 <0>      -0.1400
   32 C32      -7.6308     4.1338    -3.8332 C.3    1 <0>      -0.1500
   33 C33      -7.6236     3.4826    -2.4484 C.3    1 <0>      -0.0100
   34 C34      -3.6762     1.7628     0.0103 C.ar   1 <0>      -0.2200
   35 C35      -2.4652     1.1077     0.0380 C.ar   1 <0>      -0.0200
   36 H36       0.9545     0.1047     2.2619 H      1 <0>       0.1300
   37 H37       0.0141    -0.1857     4.5136 H      1 <0>       0.1400
   38 H38       0.3393     1.5216     6.9525 H      1 <0>       0.4000
   39 H39       0.5044     3.9949     5.2722 H      1 <0>       0.1400
   40 H40       1.4529     4.2992     3.0257 H      1 <0>       0.1300
   41 H41       4.9066     3.9345    -1.7655 H      1 <0>       0.1400
   42 H42       5.2527     2.7567    -4.4876 H      1 <0>       0.4000
   43 H43       2.3541     1.9966    -4.5838 H      1 <0>       0.1400
   44 H44       0.8585     1.3036    -2.7768 H      1 <0>       0.1300
   45 H45      -0.4057     3.7932    -0.2609 H      1 <0>       0.1400
   46 H46      -2.5734     4.9487    -0.3185 H      1 <0>       0.1400
   47 H47      -6.1129     2.2680    -0.8728 H      1 <0>       0.0900
   48 H48      -6.0702     2.4365     0.8987 H      1 <0>       0.1100
   49 H49      -8.2183     3.2659     0.0674 H      1 <0>       0.1500
   50 H50      -7.2581     4.6384     0.6695 H      1 <0>       0.1400
   51 H51      -9.4678     4.9196    -1.2810 H      1 <0>       0.1300
   52 H52      -8.4003     6.1862    -0.6311 H      1 <0>       0.1300
   53 H53      -9.4101     6.8898    -2.7845 H      1 <0>       0.1100
   54 H54      -7.6428     6.7272    -2.9302 H      1 <0>       0.0900
   55 H55      -9.7219     4.6569    -3.7771 H      1 <0>       0.0800
   56 H56      -8.7392     5.6690    -4.8648 H      1 <0>       0.0900
   57 H57      -7.7875     3.3693    -4.5941 H      1 <0>       0.1100
   58 H58      -6.6769     4.6316    -4.0074 H      1 <0>       0.0900
   59 H59      -6.8185     2.7497    -2.3962 H      1 <0>       0.1300
   60 H60      -8.5781     2.9853    -2.2763 H      1 <0>       0.1300
   61 H61      -4.5953     1.2007     0.0856 H      1 <0>       0.1400
   62 H62      -2.4341     0.0329     0.1387 H      1 <0>       0.1400
@<TRIPOS>BOND
   1    1    2 2
   2    2    3 1
   3    2   20 1
   4    3   19 1
   5    3    4 2
   6    4    5 1
   7    4   12 1
   8    5   11 ar
   9    5    6 ar
  10    6    7 ar
  11    6   36 1
  12    7    8 ar
  13    7   37 1
  14    8    9 1
  15    8   10 ar
  16    9   38 1
  17   10   11 ar
  18   10   39 1
  19   11   40 1
  20   12   13 1
  21   13   19 ar
  22   13   14 ar
  23   14   15 ar
  24   14   41 1
  25   15   16 1
  26   15   17 ar
  27   16   42 1
  28   17   18 ar
  29   17   43 1
  30   18   19 ar
  31   18   44 1
  32   20   35 ar
  33   20   21 ar
  34   21   22 ar
  35   21   45 1
  36   22   23 ar
  37   22   46 1
  38   23   24 1
  39   23   34 ar
  40   24   25 1
  41   25   26 1
  42   25   47 1
  43   25   48 1
  44   26   27 1
  45   26   49 1
  46   26   50 1
  47   27   28 1
  48   27   33 1
  49   27   29 1
  50   29   30 1
  51   29   51 1
  52   29   52 1
  53   30   31 1
  54   30   53 1
  55   30   54 1
  56   31   32 1
  57   31   55 1
  58   31   56 1
  59   32   33 1
  60   32   57 1
  61   32   58 1
  62   33   59 1
  63   33   60 1
  64   34   35 ar
  65   34   61 1
  66   35   62 1
