@<TRIPOS>MOLECULE
ZINC000003955058
70    73    1     0     0
SMALL
USER_CHARGES
@<TRIPOS>ATOM
1      C1      0.9048    0.2084   -3.6961 C.3      1 ZINC000003955058   -0.1800
2      C2      0.1984    0.4534   -2.3612 C.3      1 ZINC000003955058   -0.1000
3      C3     -1.3143    0.3298   -2.5545 C.3      1 ZINC000003955058   -0.1500
4      C4      0.6681   -0.5826   -1.3379 C.3      1 ZINC000003955058   -0.1300
5      C5      2.1398   -0.3351   -1.0005 C.3      1 ZINC000003955058    0.1200
6      H6      2.4382   -0.9850   -0.1778 H        1 ZINC000003955058    0.1200
7      N7      2.3222    1.0645   -0.6081 N.am     1 ZINC000003955058   -0.7000
8      C8      2.0313    1.4554    0.6485 C.2      1 ZINC000003955058    0.6100
9      O9      1.7051    0.6313    1.4818 O.2      1 ZINC000003955058   -0.5100
10     C10     2.1082    2.8774    1.0121 C.2      1 ZINC000003955058   -0.0300
11     C11     1.8439    3.3844    2.2440 C.2      1 ZINC000003955058   -0.1000
12     C12     2.0474    4.8290    2.1397 C.ar     1 ZINC000003955058   -0.1500
13     C13     1.9395    5.8945    3.0361 C.ar     1 ZINC000003955058   -0.0600
14     C14     2.2061    7.1660    2.6120 C.ar     1 ZINC000003955058   -0.1400
15     C15     2.5825    7.4045    1.2975 C.ar     1 ZINC000003955058   -0.0800
16     C16     2.6944    6.3668    0.3972 C.ar     1 ZINC000003955058   -0.1100
17     C17     2.4292    5.0650    0.8056 C.ar     1 ZINC000003955058    0.0700
18     O18     2.4577    3.8755    0.1738 O.3      1 ZINC000003955058   -0.1800
19     C19     2.9892   -0.6327   -2.2092 C.2      1 ZINC000003955058    0.5300
20     O20     3.6528    0.2471   -2.7156 O.2      1 ZINC000003955058   -0.5200
21     N21     3.0115   -1.8767   -2.7274 N.am     1 ZINC000003955058   -0.7200
22     C22     3.9211   -2.1942   -3.8311 C.3      1 ZINC000003955058    0.1000
23     H23     4.0531   -1.3095   -4.4541 H        1 ZINC000003955058    0.1300
24     C24     5.2810   -2.6191   -3.2603 C.3      1 ZINC000003955058   -0.1200
25     C25     5.1444   -3.5874   -2.1487 C.3      1 ZINC000003955058   -0.1400
26     C26     4.5216   -4.9152   -2.5816 C.3      1 ZINC000003955058    0.1500
27     H27     4.9465   -5.2156   -3.5394 H        1 ZINC000003955058    0.0900
28     C28     4.8362   -5.9846   -1.5336 C.3      1 ZINC000003955058   -0.2100
29     N29     3.0885   -4.7889   -2.7156 N.am     1 ZINC000003955058   -0.9900
30     S30     2.1065   -5.1041   -1.4200 S.o2     1 ZINC000003955058    2.6900
31     O31     2.8182   -4.6814   -0.2650 O.2      1 ZINC000003955058   -0.9100
32     O32     0.8188   -4.6109   -1.7632 O.2      1 ZINC000003955058   -0.9400
33     C33     1.9520   -6.8549   -1.2963 C.ar     1 ZINC000003955058   -0.4500
34     C34     1.0192   -7.5148   -2.0733 C.ar     1 ZINC000003955058   -0.0800
35     C35     0.9059   -8.8929   -1.9687 C.ar     1 ZINC000003955058   -0.0900
36     C36     1.7390   -9.5580   -1.0825 C.ar     1 ZINC000003955058   -0.1100
37     C37     2.6484   -8.8306   -0.3379 C.ar     1 ZINC000003955058    0.0800
38     N38     2.7318   -7.5210   -0.4671 N.ar     1 ZINC000003955058   -0.3800
39     C39     2.4977   -4.3790   -4.0055 C.3      1 ZINC000003955058    0.0600
40     C40     3.3341   -3.2898   -4.6518 C.2      1 ZINC000003955058    0.3600
41     O41     3.5251   -3.3110   -5.8441 O.2      1 ZINC000003955058   -0.4200
42     H42     1.9546    0.4883   -3.6084 H        1 ZINC000003955058    0.0800
43     H43     0.8308   -0.8471   -3.9579 H        1 ZINC000003955058    0.0500
44     H44     0.4322    0.8094   -4.4729 H        1 ZINC000003955058    0.0600
45     H45     0.4382    1.4540   -2.0015 H        1 ZINC000003955058    0.0800
46     H46    -1.5541   -0.6708   -2.9141 H        1 ZINC000003955058    0.0600
47     H47    -1.8175    0.5043   -1.6035 H        1 ZINC000003955058    0.0600
48     H48    -1.6490    1.0678   -3.2835 H        1 ZINC000003955058    0.0600
49     H49     0.0682   -0.4964   -0.4320 H        1 ZINC000003955058    0.0900
50     H50     0.5543   -1.5830   -1.7553 H        1 ZINC000003955058    0.0800
51     H51     2.6523    1.7098   -1.2526 H        1 ZINC000003955058    0.4200
52     H52     1.5439    2.8327    3.1226 H        1 ZINC000003955058    0.1700
53     H53     1.6463    5.7146    4.0598 H        1 ZINC000003955058    0.1300
54     H54     2.1230    7.9908    3.3042 H        1 ZINC000003955058    0.1300
55     H55     2.7898    8.4146    0.9764 H        1 ZINC000003955058    0.1400
56     H56     2.9881    6.5647   -0.6230 H        1 ZINC000003955058    0.1400
57     H57     2.4254   -2.5617   -2.3696 H        1 ZINC000003955058    0.3900
58     H58     5.8715   -3.0745   -4.0554 H        1 ZINC000003955058    0.0800
59     H59     5.8037   -1.7345   -2.8964 H        1 ZINC000003955058    0.0900
60     H60     6.1320   -3.7833   -1.7313 H        1 ZINC000003955058    0.0900
61     H61     4.5203   -3.1442   -1.3727 H        1 ZINC000003955058    0.0800
62     H62     4.4226   -5.6830   -0.5712 H        1 ZINC000003955058    0.1100
63     H63     4.3938   -6.9331   -1.8381 H        1 ZINC000003955058    0.0600
64     H64     5.9165   -6.0995   -1.4448 H        1 ZINC000003955058    0.0900
65     H65     0.3860   -6.9641   -2.7532 H        1 ZINC000003955058    0.1500
66     H66     0.1855   -9.4351   -2.5633 H        1 ZINC000003955058    0.1500
67     H67     1.6780  -10.6309   -0.9750 H        1 ZINC000003955058    0.1500
68     H68     3.3008   -9.3412    0.3550 H        1 ZINC000003955058    0.1700
69     H69     2.4536   -5.2411   -4.6710 H        1 ZINC000003955058    0.1100
70     H70     1.4881   -4.0046   -3.8358 H        1 ZINC000003955058    0.1300
@<TRIPOS>BOND
1     1     2     1
2     1     42    1
3     1     43    1
4     1     44    1
5     2     3     1
6     2     4     1
7     2     45    1
8     3     46    1
9     3     47    1
10    3     48    1
11    4     5     1
12    4     49    1
13    4     50    1
14    5     6     1
15    5     7     1
16    5     19    1
17    7     8     am
18    7     51    1
19    8     9     2
20    8     10    1
21    10    18    1
22    10    11    2
23    11    12    1
24    11    52    1
25    12    17    ar
26    12    13    ar
27    13    14    ar
28    13    53    1
29    14    15    ar
30    14    54    1
31    15    16    ar
32    15    55    1
33    16    17    ar
34    16    56    1
35    17    18    1
36    19    20    2
37    19    21    am
38    21    22    1
39    21    57    1
40    22    23    1
41    22    40    1
42    22    24    1
43    24    25    1
44    24    58    1
45    24    59    1
46    25    26    1
47    25    60    1
48    25    61    1
49    26    27    1
50    26    28    1
51    26    29    1
52    28    62    1
53    28    63    1
54    28    64    1
55    29    30    am
56    29    39    1
57    30    31    2
58    30    32    2
59    30    33    1
60    33    38    ar
61    33    34    ar
62    34    35    ar
63    34    65    1
64    35    36    ar
65    35    66    1
66    36    37    ar
67    36    67    1
68    37    38    ar
69    37    68    1
70    39    40    1
71    39    69    1
72    39    70    1
73    40    41    2

