@<TRIPOS>MOLECULE
ZINC000001035331
  29   30    0    0    0
SMALL
USER_CHARGES
@<TRIPOS>ATOM
    1 N1       -0.0162     1.3436     0.0094 N.am   1 <0>      -0.8300
    2 C2        0.0021    -0.0041     0.0020 C.2    1 <0>       0.6200
    3 O3        1.0629    -0.5974    -0.0113 O.2    1 <0>      -0.5200
    4 C4       -1.2683    -0.7608     0.0101 C.2    1 <0>       0.1400
    5 N5       -1.3891    -2.0702     0.0095 N.2    1 <0>      -0.2400
    6 N6       -2.6423    -2.3695     0.0187 N.pl3  1 <0>      -0.3000
    7 C7       -3.1986    -3.7248     0.0222 C.3    1 <0>       0.3200
    8 H8       -4.2860    -3.6922    -0.0458 H      1 <0>       0.1400
    9 O9       -2.7843    -4.4414     1.2051 O.3    1 <0>      -0.3400
   10 C10      -2.9150    -5.8430     0.9139 C.3    1 <0>       0.0900
   11 H11      -3.8943    -6.1984     1.2344 H      1 <0>       0.1100
   12 C12      -1.8160    -6.6283     1.6326 C.3    1 <0>       0.0800
   13 O13      -2.0201    -6.5496     3.0448 O.3    1 <0>      -0.5600
   14 C14      -2.7705    -6.0095    -0.6112 C.3    1 <0>       0.0500
   15 H15      -1.8902    -6.6070    -0.8481 H      1 <0>       0.0900
   16 O16      -3.9442    -6.6100    -1.1622 O.3    1 <0>      -0.5400
   17 C17      -2.6040    -4.5618    -1.1390 C.3    1 <0>       0.0400
   18 H18      -1.5516    -4.3211    -1.2893 H      1 <0>       0.1000
   19 O19      -3.3458    -4.3703    -2.3453 O.3    1 <0>      -0.5400
   20 C20      -3.3541    -1.2273     0.0255 C.2    1 <0>       0.2200
   21 N21      -2.5052    -0.2313     0.0252 N.2    1 <0>      -0.4800
   22 H22       0.8172     1.8399     0.0041 H      1 <0>       0.4100
   23 H23      -0.8627     1.8171     0.0160 H      1 <0>       0.4100
   24 H24      -1.8499    -7.6714     1.3182 H      1 <0>       0.0700
   25 H25      -0.8435    -6.2046     1.3819 H      1 <0>       0.0600
   26 H26      -1.3586    -7.0261     3.5649 H      1 <0>       0.3900
   27 H27      -3.9078    -6.7385    -2.1200 H      1 <0>       0.3900
   28 H28      -3.0650    -4.9403    -3.0743 H      1 <0>       0.3900
   29 H29      -4.4311    -1.1472     0.0338 H      1 <0>       0.2300
@<TRIPOS>BOND
   1    1    2 am
   2    1   22 1
   3    1   23 1
   4    2    3 2
   5    2    4 1
   6    4   21 1
   7    4    5 2
   8    5    6 1
   9    6    7 1
  10    6   20 1
  11    7    8 1
  12    7   17 1
  13    7    9 1
  14    9   10 1
  15   10   11 1
  16   10   12 1
  17   10   14 1
  18   12   13 1
  19   12   24 1
  20   12   25 1
  21   13   26 1
  22   14   15 1
  23   14   16 1
  24   14   17 1
  25   16   27 1
  26   17   18 1
  27   17   19 1
  28   19   28 1
  29   20   21 2
  30   20   29 1
