@<TRIPOS>MOLECULE
ZINC000000002045
49    51    1     0     0
SMALL
USER_CHARGES
@<TRIPOS>ATOM
1      C1     -0.0178    1.4608    0.0101 C.3      1 ZINC000000002045    0.0600
2      N2      0.0021   -0.0041    0.0020 N.am     1 ZINC000000002045   -0.5700
3      C3      0.0069   -0.7233   -1.1282 C.2      1 ZINC000000002045    0.5200
4      O4     -0.0043   -0.2670   -2.2513 O.2      1 ZINC000000002045   -0.4500
5      C5      0.0284   -2.1971   -0.7798 C.3      1 ZINC000000002045   -0.1500
6      C6      0.0351   -2.1984    0.7572 C.3      1 ZINC000000002045   -0.1100
7      C7     -1.2062   -2.9044    1.2930 C.3      1 ZINC000000002045   -0.1200
8      C8     -1.1480   -2.9388    2.8229 C.3      1 ZINC000000002045   -0.0100
9      N9      0.0656   -3.6441    3.2523 N.4      1 ZINC000000002045   -0.3800
10     H10     0.0763   -4.5687    2.8485 H        1 ZINC000000002045    0.4200
11     C11     0.0747   -3.7515    4.7173 C.3      1 ZINC000000002045   -0.0100
12     C12     1.3953   -4.3741    5.1748 C.3      1 ZINC000000002045   -0.1400
13     C13     1.4048   -4.4861    6.7007 C.3      1 ZINC000000002045   -0.1700
14     C14     2.7055   -5.0993    7.1514 C.2      1 ZINC000000002045    0.4000
15     O15     3.5425   -5.4157    6.3328 O.2      1 ZINC000000002045   -0.4500
16     C16     2.9598   -5.3140    8.5833 C.ar     1 ZINC000000002045   -0.2000
17     C17     1.9937   -4.9554    9.5301 C.ar     1 ZINC000000002045   -0.0400
18     C18     2.2381   -5.1597   10.8703 C.ar     1 ZINC000000002045   -0.1700
19     C19     3.4388   -5.7192   11.2821 C.ar     1 ZINC000000002045    0.1400
20     F20     3.6723   -5.9169   12.5980 F        1 ZINC000000002045   -0.1300
21     C21     4.4007   -6.0769   10.3487 C.ar     1 ZINC000000002045   -0.1700
22     C22     4.1666   -5.8833    9.0052 C.ar     1 ZINC000000002045   -0.0300
23     C23     1.2560   -2.9064    2.8123 C.3      1 ZINC000000002045   -0.0200
24     C24     1.2998   -2.8705    1.2820 C.3      1 ZINC000000002045   -0.1200
25     C25     0.0227   -0.7359    1.1250 C.2      1 ZINC000000002045    0.5400
26     O26     0.0240   -0.2937    2.2537 O.2      1 ZINC000000002045   -0.4800
27     H27     1.0048    1.8381    0.0023 H        1 ZINC000000002045    0.0800
28     H28    -0.5450    1.8219   -0.8730 H        1 ZINC000000002045    0.1000
29     H29    -0.5280    1.8123    0.9069 H        1 ZINC000000002045    0.0900
30     H30    -0.8633   -2.6951   -1.1606 H        1 ZINC000000002045    0.1300
31     H31     0.9299   -2.6708   -1.1685 H        1 ZINC000000002045    0.1300
32     H32    -2.0978   -2.3641    0.9748 H        1 ZINC000000002045    0.1200
33     H33    -1.2404   -3.9232    0.9071 H        1 ZINC000000002045    0.1100
34     H34    -1.1314   -1.9195    3.2086 H        1 ZINC000000002045    0.1400
35     H35    -2.0254   -3.4583    3.2080 H        1 ZINC000000002045    0.1400
36     H36    -0.0298   -2.7588    5.1551 H        1 ZINC000000002045    0.1300
37     H37    -0.7548   -4.3804    5.0406 H        1 ZINC000000002045    0.1300
38     H38     1.4999   -5.3669    4.7371 H        1 ZINC000000002045    0.1000
39     H39     2.2248   -3.7453    4.8515 H        1 ZINC000000002045    0.1000
40     H40     1.3002   -3.4933    7.1385 H        1 ZINC000000002045    0.1100
41     H41     0.5753   -5.1149    7.0240 H        1 ZINC000000002045    0.1100
42     H42     1.0588   -4.5191    9.2109 H        1 ZINC000000002045    0.1400
43     H43     1.4934   -4.8834   11.6020 H        1 ZINC000000002045    0.1500
44     H44     5.3334   -6.5120   10.6759 H        1 ZINC000000002045    0.1500
45     H45     4.9163   -6.1622    8.2795 H        1 ZINC000000002045    0.1500
46     H46     1.2153   -1.8879    3.1984 H        1 ZINC000000002045    0.1400
47     H47     2.1504   -3.4021    3.1896 H        1 ZINC000000002045    0.1400
48     H48     1.3582   -3.8880    0.8956 H        1 ZINC000000002045    0.1100
49     H49     2.1736   -2.3063    0.9561 H        1 ZINC000000002045    0.1200
@<TRIPOS>BOND
1     1     2     1
2     1     27    1
3     1     28    1
4     1     29    1
5     2     25    am
6     2     3     am
7     3     4     2
8     3     5     1
9     5     6     1
10    5     30    1
11    5     31    1
12    6     24    1
13    6     7     1
14    6     25    1
15    7     8     1
16    7     32    1
17    7     33    1
18    8     9     1
19    8     34    1
20    8     35    1
21    9     10    1
22    9     11    1
23    9     23    1
24    11    12    1
25    11    36    1
26    11    37    1
27    12    13    1
28    12    38    1
29    12    39    1
30    13    14    1
31    13    40    1
32    13    41    1
33    14    15    2
34    14    16    1
35    16    22    ar
36    16    17    ar
37    17    18    ar
38    17    42    1
39    18    19    ar
40    18    43    1
41    19    20    1
42    19    21    ar
43    21    22    ar
44    21    44    1
45    22    45    1
46    23    24    1
47    23    46    1
48    23    47    1
49    24    48    1
50    24    49    1
51    25    26    2

