@<TRIPOS>MOLECULE
ZINC000003786192
  41   43    0    0    0
SMALL
USER_CHARGES
@<TRIPOS>ATOM
    1 C1       -0.0447     1.3598    -0.6533 C.3    1 <0>      -0.0900
    2 C2       -0.0026    -0.0403    -0.0974 C.2    1 <0>      -0.1300
    3 C3       -1.0743    -0.7875     0.2256 C.2    1 <0>      -0.0100
    4 C4       -2.5093    -0.3488     0.0865 C.3    1 <0>      -0.1500
    5 C5       -3.0575    -0.8342    -1.2307 C.2    1 <0>       0.5000
    6 O6       -2.3487    -1.4768    -1.9864 O.co2  1 <0>      -0.6800
    7 O7       -4.2099    -0.5842    -1.5406 O.co2  1 <0>      -0.7000
    8 C8       -0.6379    -2.0916     0.7329 C.ar   1 <0>       0.0000
    9 C9       -1.3376    -3.2095     1.1944 C.ar   1 <0>      -0.1300
   10 C10      -0.6453    -4.3257     1.6212 C.ar   1 <0>       0.1000
   11 F11      -1.3246    -5.4052     2.0666 F      1 <0>      -0.1400
   12 C12       0.7424    -4.3483     1.5963 C.ar   1 <0>      -0.1700
   13 C13       1.4514    -3.2533     1.1441 C.ar   1 <0>      -0.0700
   14 C14       0.7726    -2.1209     0.7100 C.ar   1 <0>      -0.1000
   15 C15       1.2141    -0.8158     0.1749 C.2    1 <0>       0.0000
   16 C16       2.5017    -0.4098    -0.0252 C.2    1 <0>      -0.1000
   17 C17       3.6001    -1.3784     0.0724 C.ar   1 <0>      -0.0100
   18 C18       3.4847    -2.6371    -0.5306 C.ar   1 <0>      -0.1200
   19 C19       4.5213    -3.5404    -0.4344 C.ar   1 <0>      -0.0500
   20 C20       5.6740    -3.2065     0.2560 C.ar   1 <0>      -0.4600
   21 S21       6.9931    -4.3689     0.3722 S.o    1 <0>       1.3300
   22 C22       8.0010    -3.9895    -1.0876 C.3    1 <0>      -0.5000
   23 O23       7.6818    -3.9546     1.5440 O.2    1 <0>      -0.8600
   24 C24       5.7964    -1.9644     0.8551 C.ar   1 <0>      -0.0600
   25 C25       4.7718    -1.0470     0.7643 C.ar   1 <0>      -0.1200
   26 H26       0.9721     1.7136    -0.8239 H      1 <0>       0.0600
   27 H27      -0.5925     1.3603    -1.5956 H      1 <0>       0.0700
   28 H28      -0.5439     2.0181     0.0576 H      1 <0>       0.0700
   29 H29      -3.0983    -0.7685     0.9020 H      1 <0>       0.0700
   30 H30      -2.5617     0.7393     0.1230 H      1 <0>       0.0800
   31 H31      -2.4173    -3.2007     1.2177 H      1 <0>       0.1400
   32 H32       1.2709    -5.2279     1.9331 H      1 <0>       0.1400
   33 H33       2.5310    -3.2766     1.1277 H      1 <0>       0.1400
   34 H34       2.7124     0.6241    -0.2553 H      1 <0>       0.1400
   35 H35       2.5861    -2.8993    -1.0692 H      1 <0>       0.1400
   36 H36       4.4339    -4.5117    -0.8985 H      1 <0>       0.1400
   37 H37       8.3463    -2.9571    -1.0324 H      1 <0>       0.0800
   38 H38       8.8606    -4.6589    -1.1195 H      1 <0>       0.1000
   39 H39       7.4017    -4.1246    -1.9880 H      1 <0>       0.1100
   40 H40       6.6991    -1.7121     1.3917 H      1 <0>       0.1300
   41 H41       4.8689    -0.0785     1.2323 H      1 <0>       0.1300
@<TRIPOS>BOND
   1    1    2 1
   2    1   26 1
   3    1   27 1
   4    1   28 1
   5    2   15 1
   6    2    3 2
   7    3    4 1
   8    3    8 1
   9    4    5 1
  10    4   29 1
  11    4   30 1
  12    5    6 ar
  13    5    7 ar
  14    8   14 ar
  15    8    9 ar
  16    9   10 ar
  17    9   31 1
  18   10   11 1
  19   10   12 ar
  20   12   13 ar
  21   12   32 1
  22   13   14 ar
  23   13   33 1
  24   14   15 1
  25   15   16 2
  26   16   17 1
  27   16   34 1
  28   17   25 ar
  29   17   18 ar
  30   18   19 ar
  31   18   35 1
  32   19   20 ar
  33   19   36 1
  34   20   21 1
  35   20   24 ar
  36   21   22 1
  37   21   23 2
  38   22   37 1
  39   22   38 1
  40   22   39 1
  41   24   25 ar
  42   24   40 1
  43   25   41 1
